@<TRIPOS>MOLECULE
IMPHY007074
 34 35 0 0 0
SMALL
GASTEIGER

@<TRIPOS>ATOM
      1 O           4.5981    1.3776    0.0000 O.3     1  UNL1       -0.3879
      2 N           2.8660   -0.6224    0.0000 N.3     1  UNL1       -0.3046
      3 C           4.5981    0.3776    0.0000 C.3     1  UNL1        0.0740
      4 C           4.5981   -0.6224    0.0000 C.3     1  UNL1        0.0035
      5 C           5.5443   -0.9271    0.0000 C.3     1  UNL1       -0.0372
      6 C           3.7320    0.8776    0.0000 C.3     1  UNL1       -0.0019
      7 C           5.5443    0.6824    0.0000 C.3     1  UNL1       -0.0231
      8 C           6.1279   -0.1224    0.0000 C.3     1  UNL1       -0.0475
      9 C           3.7320   -1.1224    0.0000 C.3     1  UNL1        0.0043
     10 C           2.8660    0.3776    0.0000 C.3     1  UNL1        0.0038
     11 C           5.8550   -1.8776    0.0000 C.3     1  UNL1       -0.0620
     12 C           3.7320    1.8776    0.0000 C.3     1  UNL1       -0.0586
     13 C           2.0000   -1.1224    0.0000 C.3     1  UNL1       -0.0127
     14 H           4.6637   -1.2389    0.0000 H       1  UNL1        0.0344
     15 H           5.1068   -1.3665    0.0000 H       1  UNL1        0.0302
     16 H           3.1951    1.1876    0.0000 H       1  UNL1        0.0338
     17 H           6.0817    0.9916    0.0000 H       1  UNL1        0.0293
     18 H           5.2933    1.2493    0.0000 H       1  UNL1        0.0293
     19 H           6.5888   -0.5371    0.0000 H       1  UNL1        0.0269
     20 H           6.5888    0.2924    0.0000 H       1  UNL1        0.0269
     21 H           3.3335   -1.5973    0.0000 H       1  UNL1        0.0430
     22 H           4.1306   -1.5973    0.0000 H       1  UNL1        0.0430
     23 H           2.6540    0.9602    0.0000 H       1  UNL1        0.0430
     24 H           2.2554    0.2700    0.0000 H       1  UNL1        0.0430
     25 H           5.2656   -2.0702    0.0000 H       1  UNL1        0.0233
     26 H           6.0476   -2.4670    0.0000 H       1  UNL1        0.0233
     27 H           6.4443   -1.6850    0.0000 H       1  UNL1        0.0233
     28 H           4.3520    1.8776    0.0000 H       1  UNL1        0.0234
     29 H           3.7320    2.4976    0.0000 H       1  UNL1        0.0234
     30 H           3.1120    1.8776    0.0000 H       1  UNL1        0.0234
     31 H           5.1350    1.6876    0.0000 H       1  UNL1        0.2102
     32 H           1.6900   -0.5854    0.0000 H       1  UNL1        0.0391
     33 H           1.4631   -1.4324    0.0000 H       1  UNL1        0.0391
     34 H           2.3100   -1.6593    0.0000 H       1  UNL1        0.0391
@<TRIPOS>BOND
     1     1     3    1
     2     1    31    1
     3     2     9    1
     4     2    10    1
     5     2    13    1
     6     3     4    1
     7     3     6    1
     8     3     7    1
     9     4     5    1
    10     4     9    1
    11     4    14    1
    12     5     8    1
    13     5    11    1
    14     5    15    1
    15     6    10    1
    16     6    12    1
    17     6    16    1
    18     7     8    1
    19     7    17    1
    20     7    18    1
    21     8    19    1
    22     8    20    1
    23     9    21    1
    24     9    22    1
    25    10    23    1
    26    10    24    1
    27    11    25    1
    28    11    26    1
    29    11    27    1
    30    12    28    1
    31    12    29    1
    32    12    30    1
    33    13    32    1
    34    13    33    1
    35    13    34    1
