@<TRIPOS>MOLECULE
IMPHY007375
 50 52 0 0 0
SMALL
GASTEIGER

@<TRIPOS>ATOM
      1 O           6.3981   -1.9854    0.0000 O.2     1  UNL1       -0.2920
      2 O           5.5442    2.5839    0.0000 O.3     1  UNL1       -0.5065
      3 C           3.8000   -1.4854    0.0000 C.3     1  UNL1       -0.0195
      4 C           3.8000   -0.4854    0.0000 C.3     1  UNL1       -0.0026
      5 C           2.9061   -2.0200    0.0000 C.3     1  UNL1       -0.0309
      6 C           2.9061    0.0493    0.0000 C.3     1  UNL1       -0.0433
      7 C           2.0000   -1.5062    0.0000 C.3     1  UNL1       -0.0476
      8 C           2.0000   -0.4646    0.0000 C.3     1  UNL1       -0.0518
      9 C           4.6660   -1.9854    0.0000 C.3     1  UNL1        0.0146
     10 C           4.6660    0.0146    0.0000 C.ar    1  UNL1       -0.0272
     11 C           3.8000    0.5146    0.0000 C.3     1  UNL1       -0.0552
     12 C           2.4161   -2.8918    0.0000 C.3     1  UNL1       -0.0595
     13 C           3.4160   -2.8802    0.0000 C.3     1  UNL1       -0.0595
     14 C           5.5321   -0.4854    0.0000 C.ar    1  UNL1        0.0216
     15 C           5.5321   -1.4854    0.0000 C.2     1  UNL1        0.1638
     16 C           4.6500    1.0561    0.0000 C.ar    1  UNL1       -0.0155
     17 C           6.4421    0.0215    0.0000 C.ar    1  UNL1       -0.0441
     18 C           6.4501    1.0631    0.0000 C.ar    1  UNL1       -0.0027
     19 C           5.5480    1.5839    0.0000 C.ar    1  UNL1        0.1206
     20 C           7.3180    1.5597    0.0000 C.3     1  UNL1       -0.0181
     21 C           8.1821    1.0564    0.0000 C.3     1  UNL1       -0.0585
     22 C           7.3219    2.5597    0.0000 C.3     1  UNL1       -0.0585
     23 H           3.8066   -2.3354    0.0000 H       1  UNL1        0.0319
     24 H           3.3107    0.5191    0.0000 H       1  UNL1        0.0274
     25 H           2.5124    0.5283    0.0000 H       1  UNL1        0.0274
     26 H           1.3891   -1.4001    0.0000 H       1  UNL1        0.0271
     27 H           1.7909   -2.0899    0.0000 H       1  UNL1        0.0271
     28 H           1.7909    0.1191    0.0000 H       1  UNL1        0.0266
     29 H           1.3891   -0.5707    0.0000 H       1  UNL1        0.0266
     30 H           4.2675   -2.4603    0.0000 H       1  UNL1        0.0348
     31 H           5.0646   -2.4603    0.0000 H       1  UNL1        0.0348
     32 H           4.4200    0.5146    0.0000 H       1  UNL1        0.0238
     33 H           3.8000    1.1346    0.0000 H       1  UNL1        0.0238
     34 H           3.1800    0.5146    0.0000 H       1  UNL1        0.0238
     35 H           2.8827   -3.1964    0.0000 H       1  UNL1        0.0235
     36 H           3.7322   -3.4136    0.0000 H       1  UNL1        0.0235
     37 H           1.8756   -2.5880    0.0000 H       1  UNL1        0.0235
     38 H           2.1123   -3.4323    0.0000 H       1  UNL1        0.0235
     39 H           2.9566   -3.1956    0.0000 H       1  UNL1        0.0235
     40 H           3.9494   -2.5640    0.0000 H       1  UNL1        0.0235
     41 H           4.1095    1.3599    0.0000 H       1  UNL1        0.0657
     42 H           6.9754   -0.2947    0.0000 H       1  UNL1        0.0629
     43 H           7.3156    0.9397    0.0000 H       1  UNL1        0.0345
     44 H           5.0060    2.8918    0.0000 H       1  UNL1        0.2921
     45 H           7.8701    0.5206    0.0000 H       1  UNL1        0.0235
     46 H           7.9419    2.5573    0.0000 H       1  UNL1        0.0235
     47 H           8.7179    0.7443    0.0000 H       1  UNL1        0.0235
     48 H           8.4942    1.5921    0.0000 H       1  UNL1        0.0235
     49 H           7.3243    3.1797    0.0000 H       1  UNL1        0.0235
     50 H           6.7019    2.5621    0.0000 H       1  UNL1        0.0235
@<TRIPOS>BOND
     1     1    15    2
     2     2    19    1
     3     2    44    1
     4     3     4    1
     5     3     5    1
     6     3     9    1
     7     3    23    1
     8     4     6    1
     9     4    10    1
    10     4    11    1
    11     5     7    1
    12     5    12    1
    13     5    13    1
    14     6     8    1
    15     6    24    1
    16     6    25    1
    17     7     8    1
    18     7    26    1
    19     7    27    1
    20     8    28    1
    21     8    29    1
    22     9    15    1
    23     9    30    1
    24     9    31    1
    25    10    14   ar
    26    10    16   ar
    27    11    32    1
    28    11    33    1
    29    11    34    1
    30    12    37    1
    31    12    38    1
    32    12    39    1
    33    13    35    1
    34    13    36    1
    35    13    40    1
    36    14    15    1
    37    14    17   ar
    38    16    19   ar
    39    16    41    1
    40    17    18   ar
    41    17    42    1
    42    18    19   ar
    43    18    20    1
    44    20    21    1
    45    20    22    1
    46    20    43    1
    47    21    45    1
    48    21    47    1
    49    21    48    1
    50    22    46    1
    51    22    49    1
    52    22    50    1
