@<TRIPOS>MOLECULE
IMPHY000594
 12 10 0 0 0
SMALL
GASTEIGER

@<TRIPOS>ATOM
      1 CL          0.9030    0.0000    0.0000 Cl      1  UNL1       -0.1454
      2 N           1.4030    3.1200    0.0000 N.3     2  UNL2       -0.3220
      3 C           2.2690    3.6200    0.0000 C.3     2  UNL2       -0.0161
      4 C           0.5369    3.6200    0.0000 C.3     2  UNL2       -0.0161
      5 H           1.4030    2.5000    0.0000 H       2  UNL2        0.1213
      6 H           2.5790    3.0831    0.0000 H       2  UNL2        0.0388
      7 H           2.8059    3.9300    0.0000 H       2  UNL2        0.0388
      8 H           1.9590    4.1569    0.0000 H       2  UNL2        0.0388
      9 H           0.8469    4.1569    0.0000 H       2  UNL2        0.0388
     10 H           0.0000    3.9300    0.0000 H       2  UNL2        0.0388
     11 H           0.2269    3.0831    0.0000 H       2  UNL2        0.0388
     12 H           1.9030    0.0000    0.0000 H       1  UNL1        0.1454
@<TRIPOS>BOND
     1     1    12    1
     2     2     3    1
     3     2     4    1
     4     2     5    1
     5     3     6    1
     6     3     7    1
     7     3     8    1
     8     4     9    1
     9     4    10    1
    10     4    11    1
