@<TRIPOS>MOLECULE
IMPHY003063
 127 134 0 0 0
SMALL
GASTEIGER

@<TRIPOS>ATOM
      1 O           9.4982    3.9174    0.0000 O.3     1  UNL1       -0.3876
      2 O           9.4528    6.8582    0.0000 O.3     1  UNL1       -0.3911
      3 O           7.7331   -1.2861    0.0000 O.3     1  UNL1       -0.3454
      4 O           5.8941    7.4311    0.0000 O.3     1  UNL1       -0.4571
      5 O           6.0010   -1.2861    0.0000 O.3     1  UNL1       -0.3431
      6 O           6.5292    9.0961    0.0000 O.2     1  UNL1       -0.2456
      7 O           7.7331   -3.2861    0.0000 O.3     1  UNL1       -0.3841
      8 O           6.0010   -4.2861    0.0000 O.3     1  UNL1       -0.3744
      9 O           4.2690   -3.2861    0.0000 O.3     1  UNL1       -0.3402
     10 O           5.1350   -4.7861    0.0000 O.3     1  UNL1       -0.3405
     11 O           2.5369   -4.2861    0.0000 O.3     1  UNL1       -0.3841
     12 O           2.5369   -6.2861    0.0000 O.3     1  UNL1       -0.3864
     13 O           4.2690   -7.2861    0.0000 O.3     1  UNL1       -0.3865
     14 O           6.8671   -5.7861    0.0000 O.3     1  UNL1       -0.3460
     15 O           8.5991   -5.7861    0.0000 O.3     1  UNL1       -0.3405
     16 O           6.8671   -7.7861    0.0000 O.3     1  UNL1       -0.3841
     17 O           8.5991   -8.7861    0.0000 O.3     1  UNL1       -0.3864
     18 O          10.3312   -7.7861    0.0000 O.3     1  UNL1       -0.3865
     19 O          10.3312   -4.7861    0.0000 O.3     1  UNL1       -0.3924
     20 C           8.6303    4.4141    0.0000 C.3     1  UNL1        0.0775
     21 C           8.6342    3.4141    0.0000 C.3     1  UNL1       -0.0082
     22 C           7.7701    2.9108    0.0000 C.3     1  UNL1       -0.0299
     23 C           7.7624    4.9108    0.0000 C.3     1  UNL1        0.0060
     24 C           7.7580    1.8692    0.0000 C.3     1  UNL1       -0.0259
     25 C           8.6581    1.3449    0.0000 C.3     1  UNL1       -0.0330
     26 C           7.9678    5.8834    0.0000 C.3     1  UNL1        0.0179
     27 C           6.9021    3.4074    0.0000 C.3     1  UNL1       -0.0488
     28 C           6.8983    4.4074    0.0000 C.3     1  UNL1       -0.0441
     29 C           9.3647    5.0840    0.0000 C.3     1  UNL1        0.0035
     30 C           9.5461    2.9108    0.0000 C.3     1  UNL1       -0.0470
     31 C           8.9561    5.9902    0.0000 C.3     1  UNL1        0.0651
     32 C           9.5581    1.8692    0.0000 C.3     1  UNL1       -0.0493
     33 C           6.8081    1.3449    0.0000 C.3     1  UNL1       -0.0448
     34 C           6.8944    5.4074    0.0000 C.3     1  UNL1       -0.0563
     35 C           8.6706    0.2600    0.0000 C.3     1  UNL1       -0.0232
     36 C           6.8939    2.3725    0.0000 C.3     1  UNL1       -0.0590
     37 C           6.7956    0.2600    0.0000 C.3     1  UNL1       -0.0260
     38 C           7.7331   -0.2861    0.0000 C.3     1  UNL1        0.0621
     39 C           7.2971    6.6251    0.0000 C.2     1  UNL1       -0.0198
     40 C           6.3028    6.5184    0.0000 C.3     1  UNL1        0.1148
     41 C           7.5029    7.6037    0.0000 C.2     1  UNL1        0.0253
     42 C           6.6358    8.1018    0.0000 C.2     1  UNL1        0.3323
     43 C           6.8671   -1.7861    0.0000 C.3     1  UNL1        0.1881
     44 C           6.8671   -2.7861    0.0000 C.3     1  UNL1        0.1344
     45 C           6.0010   -3.2861    0.0000 C.3     1  UNL1        0.1174
     46 C           5.1350   -1.7861    0.0000 C.3     1  UNL1        0.0877
     47 C           5.1350   -2.7861    0.0000 C.3     1  UNL1        0.1162
     48 C           4.2690   -1.2861    0.0000 C.3     1  UNL1       -0.0360
     49 C           4.2690   -4.2861    0.0000 C.3     1  UNL1        0.1884
     50 C           6.8671   -4.7861    0.0000 C.3     1  UNL1        0.0370
     51 C           3.4030   -4.7861    0.0000 C.3     1  UNL1        0.1341
     52 C           3.4030   -5.7861    0.0000 C.3     1  UNL1        0.1141
     53 C           5.1350   -5.7861    0.0000 C.3     1  UNL1        0.1134
     54 C           4.2690   -6.2861    0.0000 C.3     1  UNL1        0.1119
     55 C           6.0010   -6.2861    0.0000 C.3     1  UNL1        0.0796
     56 C           7.7331   -6.2861    0.0000 C.3     1  UNL1        0.1880
     57 C           7.7331   -7.2861    0.0000 C.3     1  UNL1        0.1341
     58 C           8.5991   -7.7861    0.0000 C.3     1  UNL1        0.1141
     59 C           9.4651   -6.2861    0.0000 C.3     1  UNL1        0.1130
     60 C           9.4651   -7.2861    0.0000 C.3     1  UNL1        0.1119
     61 C          10.3312   -5.7861    0.0000 C.3     1  UNL1        0.0730
     62 H           9.3653    3.8476    0.0000 H       1  UNL1        0.0331
     63 H           8.5045    2.4829    0.0000 H       1  UNL1        0.0310
     64 H           9.3974    0.9256    0.0000 H       1  UNL1        0.0307
     65 H           8.1885    6.4628    0.0000 H       1  UNL1        0.0378
     66 H           6.2911    3.5127    0.0000 H       1  UNL1        0.0268
     67 H           6.6923    2.8240    0.0000 H       1  UNL1        0.0268
     68 H           6.6840    4.9892    0.0000 H       1  UNL1        0.0272
     69 H           6.2881    4.2974    0.0000 H       1  UNL1        0.0272
     70 H           9.7321    4.5846    0.0000 H       1  UNL1        0.0318
     71 H           9.9000    5.3968    0.0000 H       1  UNL1        0.0318
     72 H          10.1581    2.8117    0.0000 H       1  UNL1        0.0269
     73 H           9.7484    3.4968    0.0000 H       1  UNL1        0.0269
     74 H           8.6167    6.5090    0.0000 H       1  UNL1        0.0600
     75 H           9.7739    1.2880    0.0000 H       1  UNL1        0.0268
     76 H          10.1677    1.9824    0.0000 H       1  UNL1        0.0268
     77 H           6.6058    1.9310    0.0000 H       1  UNL1        0.0271
     78 H           6.1961    1.2459    0.0000 H       1  UNL1        0.0271
     79 H           7.2023    5.9455    0.0000 H       1  UNL1        0.0236
     80 H           6.3563    5.7153    0.0000 H       1  UNL1        0.0236
     81 H           6.5865    4.8693    0.0000 H       1  UNL1        0.0236
     82 H           8.8864   -0.3212    0.0000 H       1  UNL1        0.0293
     83 H           9.2802    0.3731    0.0000 H       1  UNL1        0.0293
     84 H           7.2060    2.9083    0.0000 H       1  UNL1        0.0235
     85 H           6.3582    2.6846    0.0000 H       1  UNL1        0.0235
     86 H           6.5818    1.8368    0.0000 H       1  UNL1        0.0235
     87 H           6.1860    0.3731    0.0000 H       1  UNL1        0.0290
     88 H           6.5798   -0.3212    0.0000 H       1  UNL1        0.0290
     89 H           8.2706   -0.5951    0.0000 H       1  UNL1        0.0597
     90 H          10.0340    4.2295    0.0000 H       1  UNL1        0.2102
     91 H          10.0728    6.8606    0.0000 H       1  UNL1        0.2098
     92 H           5.7136    6.3256    0.0000 H       1  UNL1        0.0746
     93 H           6.4330    5.9123    0.0000 H       1  UNL1        0.0746
     94 H           8.0688    7.8570    0.0000 H       1  UNL1        0.0689
     95 H           7.4040   -2.0961    0.0000 H       1  UNL1        0.0937
     96 H           6.8671   -3.4061    0.0000 H       1  UNL1        0.0671
     97 H           5.4641   -3.5961    0.0000 H       1  UNL1        0.0650
     98 H           5.1350   -1.1661    0.0000 H       1  UNL1        0.0621
     99 H           4.5981   -2.4761    0.0000 H       1  UNL1        0.0650
    100 H           8.2700   -2.9761    0.0000 H       1  UNL1        0.2101
    101 H           4.5790   -0.7492    0.0000 H       1  UNL1        0.0255
    102 H           3.7320   -0.9761    0.0000 H       1  UNL1        0.0255
    103 H           3.9590   -1.8231    0.0000 H       1  UNL1        0.0255
    104 H           3.7320   -3.9761    0.0000 H       1  UNL1        0.0938
    105 H           6.5571   -5.3231    0.0000 H       1  UNL1        0.0524
    106 H           7.4040   -5.0961    0.0000 H       1  UNL1        0.0524
    107 H           7.1771   -4.2492    0.0000 H       1  UNL1        0.0524
    108 H           3.9650   -4.1661    0.0000 H       1  UNL1        0.0671
    109 H           3.4030   -6.4061    0.0000 H       1  UNL1        0.0648
    110 H           5.6720   -5.4761    0.0000 H       1  UNL1        0.0647
    111 H           4.8059   -6.5961    0.0000 H       1  UNL1        0.0647
    112 H           2.0000   -4.5961    0.0000 H       1  UNL1        0.2101
    113 H           5.6025   -6.7611    0.0000 H       1  UNL1        0.0587
    114 H           6.3996   -6.7611    0.0000 H       1  UNL1        0.0587
    115 H           2.5369   -6.9061    0.0000 H       1  UNL1        0.2100
    116 H           4.8059   -7.5961    0.0000 H       1  UNL1        0.2100
    117 H           7.7331   -5.6661    0.0000 H       1  UNL1        0.0937
    118 H           7.1962   -6.9761    0.0000 H       1  UNL1        0.0671
    119 H           8.0622   -8.0961    0.0000 H       1  UNL1        0.0648
    120 H           9.4651   -5.6661    0.0000 H       1  UNL1        0.0647
    121 H          10.0021   -6.9761    0.0000 H       1  UNL1        0.0647
    122 H          10.5432   -6.3687    0.0000 H       1  UNL1        0.0584
    123 H          10.9417   -5.6785    0.0000 H       1  UNL1        0.0584
    124 H           6.8671   -8.4061    0.0000 H       1  UNL1        0.2101
    125 H           9.1360   -9.0961    0.0000 H       1  UNL1        0.2100
    126 H          10.8681   -7.4761    0.0000 H       1  UNL1        0.2100
    127 H          10.8681   -4.4761    0.0000 H       1  UNL1        0.2095
@<TRIPOS>BOND
     1    20     1    1
     2     1    90    1
     3    31     2    1
     4     2    91    1
     5    38     3    1
     6    43     3    1
     7     4    40    1
     8     4    42    1
     9     5    43    1
    10     5    46    1
    11     6    42    2
    12    44     7    1
    13     7   100    1
    14    45     8    1
    15     8    50    1
    16    47     9    1
    17    49     9    1
    18    10    49    1
    19    10    53    1
    20    51    11    1
    21    11   112    1
    22    52    12    1
    23    12   115    1
    24    54    13    1
    25    13   116    1
    26    14    55    1
    27    56    14    1
    28    15    56    1
    29    15    59    1
    30    57    16    1
    31    16   124    1
    32    58    17    1
    33    17   125    1
    34    60    18    1
    35    18   126    1
    36    19    61    1
    37    19   127    1
    38    20    21    1
    39    20    23    1
    40    20    29    1
    41    21    22    1
    42    21    30    1
    43    21    62    1
    44    22    24    1
    45    22    27    1
    46    22    63    1
    47    23    26    1
    48    23    28    1
    49    23    34    1
    50    24    25    1
    51    24    33    1
    52    24    36    1
    53    25    32    1
    54    25    35    1
    55    25    64    1
    56    26    31    1
    57    26    39    1
    58    26    65    1
    59    27    28    1
    60    27    66    1
    61    27    67    1
    62    28    68    1
    63    28    69    1
    64    29    31    1
    65    29    70    1
    66    29    71    1
    67    30    32    1
    68    30    72    1
    69    30    73    1
    70    31    74    1
    71    32    75    1
    72    32    76    1
    73    33    37    1
    74    33    77    1
    75    33    78    1
    76    34    79    1
    77    34    80    1
    78    34    81    1
    79    35    38    1
    80    35    82    1
    81    35    83    1
    82    36    84    1
    83    36    85    1
    84    36    86    1
    85    37    38    1
    86    37    87    1
    87    37    88    1
    88    38    89    1
    89    39    40    1
    90    39    41    2
    91    40    92    1
    92    40    93    1
    93    41    42    1
    94    41    94    1
    95    43    44    1
    96    43    95    1
    97    44    45    1
    98    44    96    1
    99    45    47    1
   100    45    97    1
   101    46    47    1
   102    46    48    1
   103    46    98    1
   104    47    99    1
   105    48   101    1
   106    48   102    1
   107    48   103    1
   108    49    51    1
   109    49   104    1
   110    50   105    1
   111    50   106    1
   112    50   107    1
   113    51    52    1
   114    51   108    1
   115    52    54    1
   116    52   109    1
   117    53    54    1
   118    53    55    1
   119    53   110    1
   120    54   111    1
   121    55   113    1
   122    55   114    1
   123    56    57    1
   124    56   117    1
   125    57    58    1
   126    57   118    1
   127    58    60    1
   128    58   119    1
   129    59    60    1
   130    59    61    1
   131    59   120    1
   132    60   121    1
   133    61   122    1
   134    61   123    1
