@<TRIPOS>MOLECULE
IMPHY011406
 82 87 0 0 0
SMALL
GASTEIGER

@<TRIPOS>ATOM
      1 O           7.7662    1.7904    0.0000 O.3     1  UNL1       -0.3877
      2 O           7.7901   -1.2855    0.0000 O.3     1  UNL1       -0.3875
      3 O           6.0010   -3.4132    0.0000 O.3     1  UNL1       -0.3453
      4 O           4.3961   -0.8440    0.0000 O.2     1  UNL1       -0.3003
      5 O           3.9166    5.0298    0.0000 O.2     1  UNL1       -0.4303
      6 O           4.2690   -3.4132    0.0000 O.3     1  UNL1       -0.3431
      7 O           6.0010   -5.4132    0.0000 O.3     1  UNL1       -0.3841
      8 O           3.5529    6.7232    0.0000 O.2     1  UNL1       -0.2452
      9 O           4.2690   -6.4132    0.0000 O.3     1  UNL1       -0.3864
     10 O           2.5369   -5.4132    0.0000 O.3     1  UNL1       -0.3866
     11 C           6.8982    2.2870    0.0000 C.3     1  UNL1        0.0751
     12 C           6.9021    1.2870    0.0000 C.3     1  UNL1       -0.0077
     13 C           6.0380    0.7837    0.0000 C.3     1  UNL1       -0.0208
     14 C           6.0303    2.7837    0.0000 C.3     1  UNL1        0.0039
     15 C           6.0260   -0.2579    0.0000 C.3     1  UNL1        0.0579
     16 C           6.9260   -0.7822    0.0000 C.3     1  UNL1        0.0807
     17 C           5.1701    1.2804    0.0000 C.3     1  UNL1       -0.0483
     18 C           5.1662    2.2804    0.0000 C.3     1  UNL1       -0.0442
     19 C           6.2358    3.7563    0.0000 C.3     1  UNL1       -0.0049
     20 C           7.8140    0.7837    0.0000 C.3     1  UNL1       -0.0447
     21 C           7.6327    2.9570    0.0000 C.3     1  UNL1       -0.0226
     22 C           7.8261   -0.2579    0.0000 C.3     1  UNL1       -0.0226
     23 C           7.2241    3.8632    0.0000 C.3     1  UNL1       -0.0429
     24 C           5.0761   -0.7822    0.0000 C.3     1  UNL1       -0.0357
     25 C           6.9386   -1.8671    0.0000 C.3     1  UNL1        0.0034
     26 C           5.1624    3.2803    0.0000 C.3     1  UNL1       -0.0564
     27 C           5.0635   -1.8671    0.0000 C.3     1  UNL1       -0.0254
     28 C           6.0010   -2.4132    0.0000 C.3     1  UNL1        0.0645
     29 C           5.0418   -0.0804    0.0000 C.2     1  UNL1        0.1294
     30 C           5.5650    4.4980    0.0000 C.ar    1  UNL1       -0.0085
     31 C           5.8720    5.4497    0.0000 C.ar    1  UNL1       -0.0486
     32 C           4.5873    4.2880    0.0000 C.ar    1  UNL1        0.0994
     33 C           5.1350   -3.9132    0.0000 C.3     1  UNL1        0.1881
     34 C           5.2013    6.1914    0.0000 C.ar    1  UNL1        0.0233
     35 C           5.1350   -4.9132    0.0000 C.3     1  UNL1        0.1341
     36 C           4.2236    5.9815    0.0000 C.ar    1  UNL1        0.3367
     37 C           4.2690   -5.4132    0.0000 C.3     1  UNL1        0.1140
     38 C           3.4030   -3.9132    0.0000 C.3     1  UNL1        0.0873
     39 C           3.4030   -4.9132    0.0000 C.3     1  UNL1        0.1095
     40 C           2.5369   -3.4132    0.0000 C.3     1  UNL1       -0.0361
     41 H           7.6333    1.7205    0.0000 H       1  UNL1        0.0332
     42 H           5.3002    0.3615    0.0000 H       1  UNL1        0.0315
     43 H           4.5591    1.3857    0.0000 H       1  UNL1        0.0269
     44 H           4.9602    0.6969    0.0000 H       1  UNL1        0.0269
     45 H           4.9519    2.8621    0.0000 H       1  UNL1        0.0272
     46 H           4.5560    2.1703    0.0000 H       1  UNL1        0.0272
     47 H           6.4565    4.3357    0.0000 H       1  UNL1        0.0356
     48 H           8.4261    0.6847    0.0000 H       1  UNL1        0.0270
     49 H           8.0163    1.3698    0.0000 H       1  UNL1        0.0270
     50 H           8.0000    2.4575    0.0000 H       1  UNL1        0.0293
     51 H           8.1680    3.2698    0.0000 H       1  UNL1        0.0293
     52 H           8.0419   -0.8391    0.0000 H       1  UNL1        0.0293
     53 H           8.4357   -0.1447    0.0000 H       1  UNL1        0.0293
     54 H           7.8129    4.0572    0.0000 H       1  UNL1        0.0272
     55 H           7.0930    4.4692    0.0000 H       1  UNL1        0.0272
     56 H           4.8738   -0.1961    0.0000 H       1  UNL1        0.0276
     57 H           4.4640   -0.8812    0.0000 H       1  UNL1        0.0276
     58 H           7.1544   -2.4483    0.0000 H       1  UNL1        0.0318
     59 H           7.5482   -1.7539    0.0000 H       1  UNL1        0.0318
     60 H           5.4703    3.8185    0.0000 H       1  UNL1        0.0236
     61 H           4.6242    3.5883    0.0000 H       1  UNL1        0.0236
     62 H           4.8544    2.7422    0.0000 H       1  UNL1        0.0236
     63 H           4.4539   -1.7539    0.0000 H       1  UNL1        0.0290
     64 H           4.8477   -2.4483    0.0000 H       1  UNL1        0.0290
     65 H           6.5386   -2.7222    0.0000 H       1  UNL1        0.0598
     66 H           4.8320    0.5030    0.0000 H       1  UNL1        0.1033
     67 H           8.3019    2.1024    0.0000 H       1  UNL1        0.2102
     68 H           8.3282   -0.9776    0.0000 H       1  UNL1        0.2102
     69 H           6.4782    5.5799    0.0000 H       1  UNL1        0.0623
     70 H           4.3970    3.6980    0.0000 H       1  UNL1        0.1033
     71 H           5.1350   -3.2932    0.0000 H       1  UNL1        0.0937
     72 H           5.3917    6.7815    0.0000 H       1  UNL1        0.0689
     73 H           5.1350   -5.7632    0.0000 H       1  UNL1        0.0671
     74 H           3.5329   -5.8382    0.0000 H       1  UNL1        0.0648
     75 H           3.4030   -3.0632    0.0000 H       1  UNL1        0.0621
     76 H           2.8660   -4.6032    0.0000 H       1  UNL1        0.0646
     77 H           6.0010   -6.0332    0.0000 H       1  UNL1        0.2101
     78 H           2.8469   -2.8763    0.0000 H       1  UNL1        0.0255
     79 H           2.0000   -3.1032    0.0000 H       1  UNL1        0.0255
     80 H           2.2269   -3.9501    0.0000 H       1  UNL1        0.0255
     81 H           3.7320   -6.7232    0.0000 H       1  UNL1        0.2100
     82 H           2.0000   -5.1032    0.0000 H       1  UNL1        0.2100
@<TRIPOS>BOND
     1    11     1    1
     2     1    67    1
     3    16     2    1
     4     2    68    1
     5    28     3    1
     6    33     3    1
     7     4    29    2
     8     5    32   ar
     9     5    36   ar
    10     6    33    1
    11     6    38    1
    12     7    35    1
    13     7    77    1
    14     8    36    2
    15     9    37    1
    16     9    81    1
    17    39    10    1
    18    10    82    1
    19    11    12    1
    20    11    14    1
    21    11    21    1
    22    12    13    1
    23    12    20    1
    24    12    41    1
    25    13    15    1
    26    13    17    1
    27    13    42    1
    28    14    18    1
    29    14    19    1
    30    14    26    1
    31    15    16    1
    32    15    24    1
    33    15    29    1
    34    16    22    1
    35    16    25    1
    36    17    18    1
    37    17    43    1
    38    17    44    1
    39    18    45    1
    40    18    46    1
    41    19    23    1
    42    19    30    1
    43    19    47    1
    44    20    22    1
    45    20    48    1
    46    20    49    1
    47    21    23    1
    48    21    50    1
    49    21    51    1
    50    22    52    1
    51    22    53    1
    52    23    54    1
    53    23    55    1
    54    24    27    1
    55    24    56    1
    56    24    57    1
    57    25    28    1
    58    25    58    1
    59    25    59    1
    60    26    60    1
    61    26    61    1
    62    26    62    1
    63    27    28    1
    64    27    63    1
    65    27    64    1
    66    28    65    1
    67    29    66    1
    68    30    31   ar
    69    30    32   ar
    70    31    34   ar
    71    31    69    1
    72    32    70    1
    73    33    35    1
    74    33    71    1
    75    34    36   ar
    76    34    72    1
    77    35    37    1
    78    35    73    1
    79    37    39    1
    80    37    74    1
    81    38    39    1
    82    38    40    1
    83    38    75    1
    84    39    76    1
    85    40    78    1
    86    40    79    1
    87    40    80    1
