@<TRIPOS>MOLECULE
IMPHY000614
 38 39 0 0 0
SMALL
GASTEIGER

@<TRIPOS>ATOM
      1 O           8.1282    0.7569    0.0000 O.2     1  UNL1       -0.2924
      2 C           5.4641   -0.7673    0.0000 C.3     1  UNL1       -0.0060
      3 C           4.5981   -1.2673    0.0000 C.3     1  UNL1       -0.0399
      4 C           6.3580   -1.3020    0.0000 C.3     1  UNL1       -0.0366
      5 C           5.4641    0.2327    0.0000 C.2     1  UNL1       -0.0353
      6 C           3.7320   -0.7673    0.0000 C.3     1  UNL1       -0.0304
      7 C           3.7320    0.2327    0.0000 C.2     1  UNL1       -0.0667
      8 C           5.4641   -1.7673    0.0000 C.3     1  UNL1       -0.0555
      9 C           7.2641   -0.7881    0.0000 C.3     1  UNL1        0.0109
     10 C           4.5981    0.7327    0.0000 C.2     1  UNL1       -0.0582
     11 C           6.3580    0.7674    0.0000 C.2     1  UNL1       -0.0044
     12 C           2.8660    0.7327    0.0000 C.3     1  UNL1       -0.0253
     13 C           7.2641    0.2535    0.0000 C.2     1  UNL1        0.1593
     14 C           6.3465    1.7673    0.0000 C.3     1  UNL1       -0.0361
     15 C           2.0000    0.2327    0.0000 C.3     1  UNL1       -0.0589
     16 C           2.8660    1.7327    0.0000 C.3     1  UNL1       -0.0589
     17 H           4.1996   -1.7422    0.0000 H       1  UNL1        0.0277
     18 H           4.9966   -1.7422    0.0000 H       1  UNL1        0.0277
     19 H           5.9534   -1.7718    0.0000 H       1  UNL1        0.0278
     20 H           6.7517   -1.7810    0.0000 H       1  UNL1        0.0278
     21 H           3.1215   -0.6596    0.0000 H       1  UNL1        0.0310
     22 H           3.5200   -1.3499    0.0000 H       1  UNL1        0.0310
     23 H           4.8441   -1.7673    0.0000 H       1  UNL1        0.0238
     24 H           5.4641   -2.3873    0.0000 H       1  UNL1        0.0238
     25 H           6.0841   -1.7673    0.0000 H       1  UNL1        0.0238
     26 H           7.4732   -1.3718    0.0000 H       1  UNL1        0.0345
     27 H           7.8750   -0.6820    0.0000 H       1  UNL1        0.0345
     28 H           4.5981    1.3527    0.0000 H       1  UNL1        0.0620
     29 H           2.8660    0.1127    0.0000 H       1  UNL1        0.0340
     30 H           6.9664    1.7745    0.0000 H       1  UNL1        0.0279
     31 H           6.3393    2.3873    0.0000 H       1  UNL1        0.0279
     32 H           5.7265    1.7601    0.0000 H       1  UNL1        0.0279
     33 H           1.6900    0.7696    0.0000 H       1  UNL1        0.0235
     34 H           1.4631   -0.0773    0.0000 H       1  UNL1        0.0235
     35 H           2.3100   -0.3042    0.0000 H       1  UNL1        0.0235
     36 H           3.4860    1.7327    0.0000 H       1  UNL1        0.0235
     37 H           2.8660    2.3527    0.0000 H       1  UNL1        0.0235
     38 H           2.2460    1.7327    0.0000 H       1  UNL1        0.0235
@<TRIPOS>BOND
     1     1    13    2
     2     2     3    1
     3     2     4    1
     4     2     5    1
     5     2     8    1
     6     3     6    1
     7     3    17    1
     8     3    18    1
     9     4     9    1
    10     4    19    1
    11     4    20    1
    12     5    10    1
    13     5    11    2
    14     6     7    1
    15     6    21    1
    16     6    22    1
    17     7    10    2
    18     7    12    1
    19     8    23    1
    20     8    24    1
    21     8    25    1
    22     9    13    1
    23     9    26    1
    24     9    27    1
    25    10    28    1
    26    11    13    1
    27    11    14    1
    28    12    15    1
    29    12    16    1
    30    12    29    1
    31    14    30    1
    32    14    31    1
    33    14    32    1
    34    15    33    1
    35    15    34    1
    36    15    35    1
    37    16    36    1
    38    16    37    1
    39    16    38    1
