@<TRIPOS>MOLECULE
IMPHY010147
 29 29 0 0 0
SMALL
GASTEIGER

@<TRIPOS>ATOM
      1 O           5.5000    1.5011    0.0000 O.3     1  UNL1       -0.3950
      2 C           3.0000    0.6350    0.0000 C.3     1  UNL1       -0.0235
      3 C           3.0000   -0.3650    0.0000 C.3     1  UNL1       -0.0149
      4 C           2.0000    0.6350    0.0000 C.3     1  UNL1       -0.0465
      5 C           2.0000   -0.3650    0.0000 C.3     1  UNL1       -0.0455
      6 C           4.0000    0.6350    0.0000 C.3     1  UNL1       -0.0238
      7 C           3.0000    1.6350    0.0000 C.3     1  UNL1       -0.0589
      8 C           3.7071   -1.0721    0.0000 C.2     1  UNL1       -0.0761
      9 C           4.5000    1.5011    0.0000 C.3     1  UNL1        0.0447
     10 C           3.4483   -2.0380    0.0000 C.3     1  UNL1       -0.0438
     11 C           4.6730   -0.8133    0.0000 C.2     1  UNL1       -0.0994
     12 H           3.5728   -0.1277    0.0000 H       1  UNL1        0.0351
     13 H           2.0000    1.2550    0.0000 H       1  UNL1        0.0271
     14 H           1.3800    0.6350    0.0000 H       1  UNL1        0.0271
     15 H           1.3800   -0.3650    0.0000 H       1  UNL1        0.0271
     16 H           2.0000   -0.9850    0.0000 H       1  UNL1        0.0271
     17 H           3.8923    0.0245    0.0000 H       1  UNL1        0.0293
     18 H           4.5826    0.4230    0.0000 H       1  UNL1        0.0293
     19 H           3.6200    1.6350    0.0000 H       1  UNL1        0.0235
     20 H           3.0000    2.2550    0.0000 H       1  UNL1        0.0235
     21 H           2.3800    1.6350    0.0000 H       1  UNL1        0.0235
     22 H           4.6077    2.1116    0.0000 H       1  UNL1        0.0557
     23 H           3.9174    1.7131    0.0000 H       1  UNL1        0.0557
     24 H           2.8494   -1.8775    0.0000 H       1  UNL1        0.0274
     25 H           3.2878   -2.6369    0.0000 H       1  UNL1        0.0274
     26 H           4.0472   -2.1985    0.0000 H       1  UNL1        0.0274
     27 H           5.1114   -1.2517    0.0000 H       1  UNL1        0.0534
     28 H           4.8335   -0.2144    0.0000 H       1  UNL1        0.0534
     29 H           5.8100    2.0380    0.0000 H       1  UNL1        0.2094
@<TRIPOS>BOND
     1     1     9    1
     2     1    29    1
     3     2     3    1
     4     2     4    1
     5     2     6    1
     6     2     7    1
     7     3     5    1
     8     3     8    1
     9     3    12    1
    10     4     5    1
    11     4    13    1
    12     4    14    1
    13     5    15    1
    14     5    16    1
    15     6     9    1
    16     6    17    1
    17     6    18    1
    18     7    19    1
    19     7    20    1
    20     7    21    1
    21     8    10    1
    22     8    11    2
    23     9    22    1
    24     9    23    1
    25    10    24    1
    26    10    25    1
    27    10    26    1
    28    11    27    1
    29    11    28    1
