@<TRIPOS>MOLECULE
IMPHY015220
 26 25 0 0 0
SMALL
GASTEIGER

@<TRIPOS>ATOM
      1 C           4.5981   -0.2500    0.0000 C.3     1  UNL1       -0.0416
      2 C           5.4641    0.2500    0.0000 C.3     1  UNL1       -0.0441
      3 C           3.7320    0.2500    0.0000 C.3     1  UNL1       -0.0505
      4 C           4.5981   -1.2500    0.0000 C.3     1  UNL1       -0.0622
      5 C           2.8660   -0.2500    0.0000 C.3     1  UNL1       -0.0557
      6 C           6.3301   -0.2500    0.0000 C.3     1  UNL1       -0.0624
      7 C           5.4641    1.2500    0.0000 C.3     1  UNL1       -0.0624
      8 C           2.0000    0.2500    0.0000 C.3     1  UNL1       -0.0653
      9 H           5.1350   -0.5600    0.0000 H       1  UNL1        0.0301
     10 H           6.0010    0.5600    0.0000 H       1  UNL1        0.0298
     11 H           4.1306    0.7249    0.0000 H       1  UNL1        0.0268
     12 H           3.3335    0.7249    0.0000 H       1  UNL1        0.0268
     13 H           3.9781   -1.2500    0.0000 H       1  UNL1        0.0232
     14 H           4.5981   -1.8700    0.0000 H       1  UNL1        0.0232
     15 H           5.2181   -1.2500    0.0000 H       1  UNL1        0.0232
     16 H           2.4675   -0.7249    0.0000 H       1  UNL1        0.0263
     17 H           3.2646   -0.7249    0.0000 H       1  UNL1        0.0263
     18 H           6.0201   -0.7869    0.0000 H       1  UNL1        0.0232
     19 H           6.8671   -0.5600    0.0000 H       1  UNL1        0.0232
     20 H           6.6401    0.2869    0.0000 H       1  UNL1        0.0232
     21 H           6.0841    1.2500    0.0000 H       1  UNL1        0.0232
     22 H           5.4641    1.8700    0.0000 H       1  UNL1        0.0232
     23 H           4.8441    1.2500    0.0000 H       1  UNL1        0.0232
     24 H           2.3100    0.7869    0.0000 H       1  UNL1        0.0230
     25 H           1.4631    0.5600    0.0000 H       1  UNL1        0.0230
     26 H           1.6900   -0.2869    0.0000 H       1  UNL1        0.0230
@<TRIPOS>BOND
     1     1     2    1
     2     1     3    1
     3     1     4    1
     4     1     9    1
     5     2     6    1
     6     2     7    1
     7     2    10    1
     8     3     5    1
     9     3    11    1
    10     3    12    1
    11     4    13    1
    12     4    14    1
    13     4    15    1
    14     5     8    1
    15     5    16    1
    16     5    17    1
    17     6    18    1
    18     6    19    1
    19     6    20    1
    20     7    21    1
    21     7    22    1
    22     7    23    1
    23     8    24    1
    24     8    25    1
    25     8    26    1
