@<TRIPOS>MOLECULE
IMPHY015195
 29 31 0 0 0
SMALL
GASTEIGER

@<TRIPOS>ATOM
      1 C           3.6730    0.6801    0.0000 C.3     1  UNL1       -0.0313
      2 C           4.5092   -0.7682    0.0000 C.3     1  UNL1       -0.0400
      3 C           2.9819   -1.2033    0.0000 C.3     1  UNL1       -0.0400
      4 C           2.8368   -0.7682    0.0000 C.3     1  UNL1       -0.0400
      5 C           4.5092    0.1973    0.0000 C.3     1  UNL1       -0.0447
      6 C           2.9819   -0.1580    0.0000 C.3     1  UNL1       -0.0447
      7 C           2.8368    0.1973    0.0000 C.3     1  UNL1       -0.0447
      8 C           3.8876   -1.6801    0.0000 C.3     1  UNL1       -0.0473
      9 C           3.6730   -1.0710    0.0000 C.3     1  UNL1       -0.0473
     10 C           2.0000   -1.2510    0.0000 C.3     1  UNL1       -0.0473
     11 C           3.6730    1.6801    0.0000 C.3     1  UNL1       -0.0595
     12 H           5.1016   -0.9509    0.0000 H       1  UNL1        0.0301
     13 H           2.8478   -1.8086    0.0000 H       1  UNL1        0.0301
     14 H           3.3444   -0.4122    0.0000 H       1  UNL1        0.0301
     15 H           5.1198    0.0897    0.0000 H       1  UNL1        0.0273
     16 H           4.7212    0.7799    0.0000 H       1  UNL1        0.0273
     17 H           2.6383    0.3580    0.0000 H       1  UNL1        0.0273
     18 H           2.3885   -0.3375    0.0000 H       1  UNL1        0.0273
     19 H           2.6247    0.7799    0.0000 H       1  UNL1        0.0273
     20 H           2.2262    0.0897    0.0000 H       1  UNL1        0.0273
     21 H           3.5782   -2.2174    0.0000 H       1  UNL1        0.0271
     22 H           4.4127   -2.0097    0.0000 H       1  UNL1        0.0271
     23 H           3.3030   -1.5685    0.0000 H       1  UNL1        0.0271
     24 H           4.0430   -1.5685    0.0000 H       1  UNL1        0.0271
     25 H           1.5188   -0.8601    0.0000 H       1  UNL1        0.0271
     26 H           1.8068   -1.8401    0.0000 H       1  UNL1        0.0271
     27 H           4.2930    1.6801    0.0000 H       1  UNL1        0.0235
     28 H           3.6730    2.3001    0.0000 H       1  UNL1        0.0235
     29 H           3.0530    1.6801    0.0000 H       1  UNL1        0.0235
@<TRIPOS>BOND
     1     1     5    1
     2     1     6    1
     3     1     7    1
     4     1    11    1
     5     2     5    1
     6     2     8    1
     7     2     9    1
     8     2    12    1
     9     3     6    1
    10     3     8    1
    11     3    10    1
    12     3    13    1
    13     4     7    1
    14     4     9    1
    15     4    10    1
    16     4    14    1
    17     5    15    1
    18     5    16    1
    19     6    17    1
    20     6    18    1
    21     7    19    1
    22     7    20    1
    23     8    21    1
    24     8    22    1
    25     9    23    1
    26     9    24    1
    27    10    25    1
    28    10    26    1
    29    11    27    1
    30    11    28    1
    31    11    29    1
