@<TRIPOS>MOLECULE
IMPHY016780
 37 37 0 0 0
SMALL
GASTEIGER

@<TRIPOS>ATOM
      1 O           2.5123    2.0479    0.0000 O.3     1  UNL1       -0.5032
      2 O           3.9726    3.2124    0.0000 O.2     1  UNL1       -0.2840
      3 C           6.6039    1.1140    0.0000 C.3     1  UNL1       -0.0211
      4 C           5.6039    1.1140    0.0000 C.ar    1  UNL1       -0.0376
      5 C           5.1700    0.2130    0.0000 C.ar    1  UNL1       -0.0400
      6 C           5.7935   -0.5688    0.0000 C.3     1  UNL1       -0.0090
      7 C           7.1039    1.9800    0.0000 C.3     1  UNL1       -0.0586
      8 C           7.1039    0.2480    0.0000 C.3     1  UNL1       -0.0586
      9 C           5.1700    2.0149    0.0000 C.ar    1  UNL1       -0.0076
     10 C           4.1951   -0.0095    0.0000 C.ar    1  UNL1       -0.0544
     11 C           5.4281   -1.4997    0.0000 C.2     1  UNL1       -0.0810
     12 C           4.1951    2.2375    0.0000 C.ar    1  UNL1        0.2203
     13 C           3.4132    0.6140    0.0000 C.ar    1  UNL1       -0.0161
     14 C           6.0516   -2.2815    0.0000 C.2     1  UNL1       -0.0793
     15 C           3.4132    1.6140    0.0000 C.ar    1  UNL1        0.1635
     16 C           5.6863   -3.2124    0.0000 C.3     1  UNL1       -0.0440
     17 C           7.0405   -2.1325    0.0000 C.3     1  UNL1       -0.0440
     18 H           6.2939    0.5770    0.0000 H       1  UNL1        0.0344
     19 H           6.3225   -0.8921    0.0000 H       1  UNL1        0.0356
     20 H           6.2037   -0.1040    0.0000 H       1  UNL1        0.0356
     21 H           7.6408    1.6700    0.0000 H       1  UNL1        0.0235
     22 H           7.4139    2.5169    0.0000 H       1  UNL1        0.0235
     23 H           6.5669    2.2900    0.0000 H       1  UNL1        0.0235
     24 H           6.5669   -0.0620    0.0000 H       1  UNL1        0.0235
     25 H           7.4139   -0.2890    0.0000 H       1  UNL1        0.0235
     26 H           7.6408    0.5580    0.0000 H       1  UNL1        0.0235
     27 H           5.5566    2.4997    0.0000 H       1  UNL1        0.0660
     28 H           4.0571   -0.6140    0.0000 H       1  UNL1        0.0622
     29 H           4.8151   -1.5921    0.0000 H       1  UNL1        0.0575
     30 H           2.8546    0.3450    0.0000 H       1  UNL1        0.0655
     31 H           5.1092   -2.9859    0.0000 H       1  UNL1        0.0274
     32 H           5.4598   -3.7895    0.0000 H       1  UNL1        0.0274
     33 H           6.2634   -3.4389    0.0000 H       1  UNL1        0.0274
     34 H           7.1329   -2.7456    0.0000 H       1  UNL1        0.0274
     35 H           7.6535   -2.0401    0.0000 H       1  UNL1        0.0274
     36 H           6.9481   -1.5194    0.0000 H       1  UNL1        0.0274
     37 H           2.0000    1.6986    0.0000 H       1  UNL1        0.2923
@<TRIPOS>BOND
     1     1    15    1
     2     1    37    1
     3     2    12    2
     4     3     4    1
     5     3     7    1
     6     3     8    1
     7     3    18    1
     8     4     5   ar
     9     4     9   ar
    10     5     6    1
    11     5    10   ar
    12     6    11    1
    13     6    19    1
    14     6    20    1
    15     7    21    1
    16     7    22    1
    17     7    23    1
    18     8    24    1
    19     8    25    1
    20     8    26    1
    21     9    12   ar
    22     9    27    1
    23    10    13   ar
    24    10    28    1
    25    11    14    2
    26    11    29    1
    27    12    15   ar
    28    13    15   ar
    29    13    30    1
    30    14    16    1
    31    14    17    1
    32    16    31    1
    33    16    32    1
    34    16    33    1
    35    17    34    1
    36    17    35    1
    37    17    36    1
