@<TRIPOS>MOLECULE
IMPHY010159
 59 62 0 0 0
SMALL
GASTEIGER

@<TRIPOS>ATOM
      1 O           4.2690   -1.3780    0.0000 O.3     1  UNL1       -0.3339
      2 O           6.0010   -1.3780    0.0000 O.3     1  UNL1       -0.4532
      3 O           4.2690   -4.3780    0.0000 O.3     1  UNL1       -0.3864
      4 O           2.5369   -3.3780    0.0000 O.3     1  UNL1       -0.3866
      5 O           6.0010   -3.3780    0.0000 O.3     1  UNL1       -0.3829
      6 O           6.8671    1.1220    0.0000 O.2     1  UNL1       -0.4507
      7 O           4.2690   -0.3780    0.0000 O.2     1  UNL1       -0.2830
      8 O           3.3648    1.1189    0.0000 O.3     1  UNL1       -0.5027
      9 O           3.3490    3.1672    0.0000 O.3     1  UNL1       -0.4885
     10 O           5.1229    4.1913    0.0000 O.3     1  UNL1       -0.4912
     11 O          10.3312    0.1220    0.0000 O.3     1  UNL1       -0.5033
     12 O          10.3312   -1.8780    0.0000 O.3     1  UNL1       -0.5033
     13 C           4.2690   -3.3780    0.0000 C.3     1  UNL1        0.1151
     14 C           3.4030   -2.8780    0.0000 C.3     1  UNL1        0.1096
     15 C           5.1350   -2.8780    0.0000 C.3     1  UNL1        0.1454
     16 C           3.4030   -1.8780    0.0000 C.3     1  UNL1        0.0883
     17 C           5.1350   -1.8780    0.0000 C.3     1  UNL1        0.2311
     18 C           2.5369   -1.3780    0.0000 C.3     1  UNL1       -0.0360
     19 C           6.0010   -0.3780    0.0000 C.ar    1  UNL1        0.2138
     20 C           6.8671    0.1220    0.0000 C.ar    1  UNL1        0.1810
     21 C           5.1350    0.1220    0.0000 C.ar    1  UNL1        0.2383
     22 C           5.1350    1.1220    0.0000 C.ar    1  UNL1        0.1128
     23 C           6.0010    1.6220    0.0000 C.ar    1  UNL1        0.1468
     24 C           7.7331   -0.3780    0.0000 C.ar    1  UNL1        0.0247
     25 C           4.2250    1.6289    0.0000 C.ar    1  UNL1        0.1769
     26 C           6.0171    2.6636    0.0000 C.ar    1  UNL1        0.0270
     27 C           4.2170    2.6705    0.0000 C.ar    1  UNL1        0.2043
     28 C           5.1191    3.1913    0.0000 C.ar    1  UNL1        0.1687
     29 C           8.5991    0.1220    0.0000 C.ar    1  UNL1       -0.0057
     30 C           7.7331   -1.3780    0.0000 C.ar    1  UNL1       -0.0473
     31 C           9.4651   -0.3780    0.0000 C.ar    1  UNL1        0.1589
     32 C           8.5991   -1.8780    0.0000 C.ar    1  UNL1       -0.0159
     33 C           9.4651   -1.3780    0.0000 C.ar    1  UNL1        0.1583
     34 C           3.3452    4.1671    0.0000 C.3     1  UNL1        0.0791
     35 C           5.9909    4.6880    0.0000 C.3     1  UNL1        0.0790
     36 H           4.8059   -3.6880    0.0000 H       1  UNL1        0.0648
     37 H           3.4030   -3.4980    0.0000 H       1  UNL1        0.0646
     38 H           5.6720   -2.5680    0.0000 H       1  UNL1        0.0683
     39 H           3.4030   -1.2580    0.0000 H       1  UNL1        0.0621
     40 H           5.1350   -1.2580    0.0000 H       1  UNL1        0.1084
     41 H           2.8469   -0.8410    0.0000 H       1  UNL1        0.0255
     42 H           2.0000   -1.0680    0.0000 H       1  UNL1        0.0255
     43 H           2.2269   -1.9149    0.0000 H       1  UNL1        0.0255
     44 H           3.7320   -4.6880    0.0000 H       1  UNL1        0.2100
     45 H           2.0000   -3.0680    0.0000 H       1  UNL1        0.2100
     46 H           6.0010   -3.9980    0.0000 H       1  UNL1        0.2102
     47 H           6.5576    2.9673    0.0000 H       1  UNL1        0.0692
     48 H           8.5991    0.7420    0.0000 H       1  UNL1        0.0662
     49 H           7.1962   -1.6880    0.0000 H       1  UNL1        0.0626
     50 H           8.5991   -2.4980    0.0000 H       1  UNL1        0.0655
     51 H           2.8243    1.4227    0.0000 H       1  UNL1        0.2923
     52 H           3.9652    4.1695    0.0000 H       1  UNL1        0.0660
     53 H           3.3428    4.7871    0.0000 H       1  UNL1        0.0660
     54 H           2.7252    4.1648    0.0000 H       1  UNL1        0.0660
     55 H           6.2988    4.1498    0.0000 H       1  UNL1        0.0660
     56 H           6.5290    4.9959    0.0000 H       1  UNL1        0.0660
     57 H           5.6829    5.2261    0.0000 H       1  UNL1        0.0660
     58 H          10.3312    0.7420    0.0000 H       1  UNL1        0.2923
     59 H          10.8681   -1.5680    0.0000 H       1  UNL1        0.2923
@<TRIPOS>BOND
     1     1    16    1
     2     1    17    1
     3    17     2    1
     4     2    19    1
     5    13     3    1
     6     3    44    1
     7    14     4    1
     8     4    45    1
     9    15     5    1
    10     5    46    1
    11     6    20   ar
    12     6    23   ar
    13     7    21    2
    14     8    25    1
    15     8    51    1
    16     9    27    1
    17     9    34    1
    18    10    28    1
    19    10    35    1
    20    11    31    1
    21    11    58    1
    22    12    33    1
    23    12    59    1
    24    13    14    1
    25    13    15    1
    26    13    36    1
    27    14    16    1
    28    14    37    1
    29    15    17    1
    30    15    38    1
    31    16    18    1
    32    16    39    1
    33    17    40    1
    34    18    41    1
    35    18    42    1
    36    18    43    1
    37    19    20   ar
    38    19    21   ar
    39    20    24    1
    40    21    22   ar
    41    22    23   ar
    42    22    25   ar
    43    23    26   ar
    44    24    29   ar
    45    24    30   ar
    46    25    27   ar
    47    26    28   ar
    48    26    47    1
    49    27    28   ar
    50    29    31   ar
    51    29    48    1
    52    30    32   ar
    53    30    49    1
    54    31    33   ar
    55    32    33   ar
    56    32    50    1
    57    34    52    1
    58    34    53    1
    59    34    54    1
    60    35    55    1
    61    35    56    1
    62    35    57    1
