@<TRIPOS>MOLECULE
IMPHY010829
 40 43 0 0 0
SMALL
GASTEIGER

@<TRIPOS>ATOM
      1 O           7.4714   -0.0717    0.0000 O.2     1  UNL1       -0.4619
      2 O           3.9271    1.7331    0.0000 O.2     1  UNL1       -0.2832
      3 O           5.6591    2.7331    0.0000 O.2     1  UNL1       -0.2830
      4 C           2.9396   -1.8651    0.0000 C.3     1  UNL1       -0.0096
      5 C           2.0000   -1.3226    0.0000 C.3     1  UNL1       -0.0436
      6 C           3.8751   -1.3154    0.0000 C.ar    1  UNL1       -0.0378
      7 C           2.0084   -0.2377    0.0000 C.3     1  UNL1       -0.0482
      8 C           3.8831   -0.2738    0.0000 C.ar    1  UNL1       -0.0321
      9 C           2.9562    0.2903    0.0000 C.3     1  UNL1       -0.0267
     10 C           2.4430   -2.7331    0.0000 C.3     1  UNL1       -0.0558
     11 C           3.4430   -2.7292    0.0000 C.3     1  UNL1       -0.0558
     12 C           4.7931    0.2331    0.0000 C.ar    1  UNL1        0.0397
     13 C           4.7771   -1.8362    0.0000 C.ar    1  UNL1       -0.0571
     14 C           5.6591   -0.2669    0.0000 C.ar    1  UNL1        0.0292
     15 C           5.6752   -1.3084    0.0000 C.ar    1  UNL1       -0.0501
     16 C           6.5251    0.2331    0.0000 C.ar    1  UNL1        0.1466
     17 C           4.7931    1.2331    0.0000 C.2     1  UNL1        0.2340
     18 C           6.5251    1.2331    0.0000 C.ar    1  UNL1        0.0741
     19 C           5.6591    1.7331    0.0000 C.2     1  UNL1        0.2368
     20 C           7.4714    1.5378    0.0000 C.ar    1  UNL1       -0.0011
     21 C           8.0550    0.7331    0.0000 C.ar    1  UNL1        0.0962
     22 C           7.7820    2.4883    0.0000 C.3     1  UNL1       -0.0360
     23 H           1.3900   -1.2118    0.0000 H       1  UNL1        0.0274
     24 H           1.7864   -1.9047    0.0000 H       1  UNL1        0.0274
     25 H           1.8038    0.3476    0.0000 H       1  UNL1        0.0269
     26 H           1.3967   -0.3390    0.0000 H       1  UNL1        0.0269
     27 H           3.3645    0.7569    0.0000 H       1  UNL1        0.0313
     28 H           2.5663    0.7723    0.0000 H       1  UNL1        0.0313
     29 H           1.9048   -2.4251    0.0000 H       1  UNL1        0.0238
     30 H           2.1350   -3.2712    0.0000 H       1  UNL1        0.0238
     31 H           2.9811   -3.0410    0.0000 H       1  UNL1        0.0238
     32 H           2.9072   -3.0413    0.0000 H       1  UNL1        0.0238
     33 H           3.7550   -3.2649    0.0000 H       1  UNL1        0.0238
     34 H           3.9787   -2.4171    0.0000 H       1  UNL1        0.0238
     35 H           4.7795   -2.4562    0.0000 H       1  UNL1        0.0621
     36 H           6.2157   -1.6122    0.0000 H       1  UNL1        0.0625
     37 H           8.6750    0.7331    0.0000 H       1  UNL1        0.1032
     38 H           8.3713    2.2957    0.0000 H       1  UNL1        0.0279
     39 H           7.9746    3.0776    0.0000 H       1  UNL1        0.0279
     40 H           7.1927    2.6809    0.0000 H       1  UNL1        0.0279
@<TRIPOS>BOND
     1     1    16   ar
     2     1    21   ar
     3     2    17    2
     4     3    19    2
     5     4     5    1
     6     4     6    1
     7     4    10    1
     8     4    11    1
     9     5     7    1
    10     5    23    1
    11     5    24    1
    12     6     8   ar
    13     6    13   ar
    14     7     9    1
    15     7    25    1
    16     7    26    1
    17     8     9    1
    18     8    12   ar
    19     9    27    1
    20     9    28    1
    21    10    29    1
    22    10    30    1
    23    10    31    1
    24    11    32    1
    25    11    33    1
    26    11    34    1
    27    12    14   ar
    28    12    17    1
    29    13    15   ar
    30    13    35    1
    31    14    15   ar
    32    14    16    1
    33    15    36    1
    34    16    18   ar
    35    17    19    1
    36    18    19    1
    37    18    20   ar
    38    20    21   ar
    39    20    22    1
    40    21    37    1
    41    22    38    1
    42    22    39    1
    43    22    40    1
