@<TRIPOS>MOLECULE
IMPHY015550
 40 42 0 0 0
SMALL
GASTEIGER

@<TRIPOS>ATOM
      1 O           6.1414    0.9240    0.0000 O.3     1  UNL1       -0.3875
      2 C           4.0430   -0.7073    0.0000 C.3     1  UNL1       -0.0201
      3 C           3.1420   -0.2734    0.0000 C.3     1  UNL1       -0.0293
      4 C           2.9195    0.7015    0.0000 C.3     1  UNL1       -0.0250
      5 C           3.5430    1.4834    0.0000 C.3     1  UNL1       -0.0118
      6 C           4.1499    0.4695    0.0000 C.3     1  UNL1       -0.0397
      7 C           3.9070   -1.6920    0.0000 C.3     1  UNL1       -0.0378
      8 C           2.4569   -0.9937    0.0000 C.3     1  UNL1       -0.0489
      9 C           4.9440   -0.2734    0.0000 C.3     1  UNL1       -0.0168
     10 C           2.9288   -1.8687    0.0000 C.3     1  UNL1       -0.0497
     11 C           4.5430    1.4834    0.0000 C.2     1  UNL1       -0.0449
     12 C           5.1665    0.7015    0.0000 C.3     1  UNL1        0.0768
     13 C           2.2616    1.4546    0.0000 C.3     1  UNL1       -0.0590
     14 C           2.0000    0.3085    0.0000 C.3     1  UNL1       -0.0590
     15 C           4.6286   -2.3843    0.0000 C.3     1  UNL1       -0.0619
     16 C           4.9769    2.3843    0.0000 C.2     1  UNL1       -0.0967
     17 H           2.5442   -0.1092    0.0000 H       1  UNL1        0.0312
     18 H           3.2740    2.0420    0.0000 H       1  UNL1        0.0352
     19 H           4.7199    0.2257    0.0000 H       1  UNL1        0.0277
     20 H           4.5577    0.9365    0.0000 H       1  UNL1        0.0277
     21 H           3.7279   -2.2856    0.0000 H       1  UNL1        0.0304
     22 H           2.0551   -0.5216    0.0000 H       1  UNL1        0.0268
     23 H           1.9452   -1.3437    0.0000 H       1  UNL1        0.0268
     24 H           5.0820   -0.8779    0.0000 H       1  UNL1        0.0299
     25 H           5.5640   -0.2734    0.0000 H       1  UNL1        0.0299
     26 H           2.3551   -2.1040    0.0000 H       1  UNL1        0.0268
     27 H           3.1025   -2.4638    0.0000 H       1  UNL1        0.0268
     28 H           5.3713    1.2867    0.0000 H       1  UNL1        0.0640
     29 H           2.7285    1.8625    0.0000 H       1  UNL1        0.0235
     30 H           1.8537    1.9215    0.0000 H       1  UNL1        0.0235
     31 H           1.7947    1.0467    0.0000 H       1  UNL1        0.0235
     32 H           1.7563    0.8786    0.0000 H       1  UNL1        0.0235
     33 H           1.4299    0.0648    0.0000 H       1  UNL1        0.0235
     34 H           2.2437   -0.2616    0.0000 H       1  UNL1        0.0235
     35 H           4.1994   -2.8317    0.0000 H       1  UNL1        0.0233
     36 H           5.0760   -2.8136    0.0000 H       1  UNL1        0.0233
     37 H           5.0578   -1.9369    0.0000 H       1  UNL1        0.0233
     38 H           5.5952    2.4307    0.0000 H       1  UNL1        0.0535
     39 H           4.6276    2.8966    0.0000 H       1  UNL1        0.0535
     40 H           6.5631    0.4696    0.0000 H       1  UNL1        0.2102
@<TRIPOS>BOND
     1    12     1    1
     2     1    40    1
     3     2     3    1
     4     2     6    1
     5     2     7    1
     6     2     9    1
     7     3     4    1
     8     3     8    1
     9     3    17    1
    10     4     5    1
    11     4    13    1
    12     4    14    1
    13     5     6    1
    14     5    11    1
    15     5    18    1
    16     6    19    1
    17     6    20    1
    18     7    10    1
    19     7    15    1
    20     7    21    1
    21     8    10    1
    22     8    22    1
    23     8    23    1
    24     9    12    1
    25     9    24    1
    26     9    25    1
    27    10    26    1
    28    10    27    1
    29    11    12    1
    30    11    16    2
    31    12    28    1
    32    13    29    1
    33    13    30    1
    34    13    31    1
    35    14    32    1
    36    14    33    1
    37    14    34    1
    38    15    35    1
    39    15    36    1
    40    15    37    1
    41    16    38    1
    42    16    39    1
