@<TRIPOS>MOLECULE
IMPHY016001
 28 27 0 0 0
SMALL
GASTEIGER

@<TRIPOS>ATOM
      1 O           8.9282    1.0000    0.0000 O.3     1  UNL1       -0.3910
      2 C           4.5981   -0.5000    0.0000 C.3     1  UNL1       -0.0528
      3 C           3.7320   -1.0000    0.0000 C.3     1  UNL1       -0.0533
      4 C           5.4641   -1.0000    0.0000 C.3     1  UNL1       -0.0496
      5 C           2.8660   -0.5000    0.0000 C.3     1  UNL1       -0.0559
      6 C           6.3301   -0.5000    0.0000 C.3     1  UNL1       -0.0347
      7 C           2.0000   -1.0000    0.0000 C.3     1  UNL1       -0.0653
      8 C           7.1962   -1.0000    0.0000 C.2     1  UNL1       -0.0858
      9 C           8.0622   -0.5000    0.0000 C.2     1  UNL1       -0.0629
     10 C           8.0622    0.5000    0.0000 C.3     1  UNL1        0.0624
     11 H           4.9966   -0.0251    0.0000 H       1  UNL1        0.0265
     12 H           4.1996   -0.0251    0.0000 H       1  UNL1        0.0265
     13 H           3.3335   -1.4750    0.0000 H       1  UNL1        0.0265
     14 H           4.1306   -1.4750    0.0000 H       1  UNL1        0.0265
     15 H           5.0656   -1.4750    0.0000 H       1  UNL1        0.0268
     16 H           5.8626   -1.4750    0.0000 H       1  UNL1        0.0268
     17 H           3.2646   -0.0251    0.0000 H       1  UNL1        0.0263
     18 H           2.4675   -0.0251    0.0000 H       1  UNL1        0.0263
     19 H           6.7287   -0.0251    0.0000 H       1  UNL1        0.0307
     20 H           5.9316   -0.0251    0.0000 H       1  UNL1        0.0307
     21 H           1.6900   -0.4631    0.0000 H       1  UNL1        0.0230
     22 H           1.4631   -1.3100    0.0000 H       1  UNL1        0.0230
     23 H           2.3100   -1.5369    0.0000 H       1  UNL1        0.0230
     24 H           7.1962   -1.6200    0.0000 H       1  UNL1        0.0570
     25 H           8.5991   -0.8100    0.0000 H       1  UNL1        0.0591
     26 H           7.8501    1.0826    0.0000 H       1  UNL1        0.0601
     27 H           7.4516    0.3923    0.0000 H       1  UNL1        0.0601
     28 H           8.9282    1.6200    0.0000 H       1  UNL1        0.2098
@<TRIPOS>BOND
     1     1    10    1
     2     1    28    1
     3     2     3    1
     4     2     4    1
     5     2    11    1
     6     2    12    1
     7     3     5    1
     8     3    13    1
     9     3    14    1
    10     4     6    1
    11     4    15    1
    12     4    16    1
    13     5     7    1
    14     5    17    1
    15     5    18    1
    16     6     8    1
    17     6    19    1
    18     6    20    1
    19     7    21    1
    20     7    22    1
    21     7    23    1
    22     8     9    2
    23     8    24    1
    24     9    10    1
    25     9    25    1
    26    10    26    1
    27    10    27    1
