@<TRIPOS>MOLECULE
IMPHY017830
 37 38 0 0 0
SMALL
GASTEIGER

@<TRIPOS>ATOM
      1 C           5.4641   -0.7673    0.0000 C.3     1  UNL1       -0.0036
      2 C           5.4641    0.2327    0.0000 C.3     1  UNL1       -0.0072
      3 C           6.3580    0.7674    0.0000 C.3     1  UNL1       -0.0187
      4 C           6.3580   -1.3020    0.0000 C.3     1  UNL1       -0.0253
      5 C           4.5981    0.7327    0.0000 C.2     1  UNL1       -0.0761
      6 C           4.5981   -1.2673    0.0000 C.2     1  UNL1       -0.0770
      7 C           5.4641   -1.7673    0.0000 C.3     1  UNL1       -0.0552
      8 C           7.2641    0.2535    0.0000 C.2     1  UNL1       -0.0845
      9 C           3.7320    0.2327    0.0000 C.2     1  UNL1       -0.0487
     10 C           7.2641   -0.7881    0.0000 C.2     1  UNL1       -0.0868
     11 C           3.7320   -0.7673    0.0000 C.2     1  UNL1       -0.0620
     12 C           6.3465    1.7673    0.0000 C.3     1  UNL1       -0.0584
     13 C           2.8660    0.7327    0.0000 C.3     1  UNL1       -0.0218
     14 C           2.0000    0.2327    0.0000 C.3     1  UNL1       -0.0587
     15 C           2.8660    1.7327    0.0000 C.3     1  UNL1       -0.0587
     16 H           5.4593    0.8527    0.0000 H       1  UNL1        0.0357
     17 H           6.8920    1.0825    0.0000 H       1  UNL1        0.0346
     18 H           5.9534   -1.7718    0.0000 H       1  UNL1        0.0316
     19 H           6.7517   -1.7810    0.0000 H       1  UNL1        0.0316
     20 H           4.5981    1.3527    0.0000 H       1  UNL1        0.0578
     21 H           4.5981   -1.8873    0.0000 H       1  UNL1        0.0578
     22 H           4.8441   -1.7673    0.0000 H       1  UNL1        0.0238
     23 H           5.4641   -2.3873    0.0000 H       1  UNL1        0.0238
     24 H           6.0841   -1.7673    0.0000 H       1  UNL1        0.0238
     25 H           7.7998    0.5656    0.0000 H       1  UNL1        0.0572
     26 H           7.7998   -1.1002    0.0000 H       1  UNL1        0.0569
     27 H           3.1951   -1.0773    0.0000 H       1  UNL1        0.0617
     28 H           6.9664    1.7745    0.0000 H       1  UNL1        0.0236
     29 H           6.3393    2.3873    0.0000 H       1  UNL1        0.0236
     30 H           5.7265    1.7601    0.0000 H       1  UNL1        0.0236
     31 H           2.8660    0.1127    0.0000 H       1  UNL1        0.0343
     32 H           1.6900    0.7696    0.0000 H       1  UNL1        0.0235
     33 H           1.4631   -0.0773    0.0000 H       1  UNL1        0.0235
     34 H           2.3100   -0.3042    0.0000 H       1  UNL1        0.0235
     35 H           3.4860    1.7327    0.0000 H       1  UNL1        0.0235
     36 H           2.8660    2.3527    0.0000 H       1  UNL1        0.0235
     37 H           2.2460    1.7327    0.0000 H       1  UNL1        0.0235
@<TRIPOS>BOND
     1     1     2    1
     2     1     4    1
     3     1     6    1
     4     1     7    1
     5     2     3    1
     6     2     5    1
     7     2    16    1
     8     3     8    1
     9     3    12    1
    10     3    17    1
    11     4    10    1
    12     4    18    1
    13     4    19    1
    14     5     9    2
    15     5    20    1
    16     6    11    2
    17     6    21    1
    18     7    22    1
    19     7    23    1
    20     7    24    1
    21     8    10    2
    22     8    25    1
    23     9    11    1
    24     9    13    1
    25    10    26    1
    26    11    27    1
    27    12    28    1
    28    12    29    1
    29    12    30    1
    30    13    14    1
    31    13    15    1
    32    13    31    1
    33    14    32    1
    34    14    33    1
    35    14    34    1
    36    15    35    1
    37    15    36    1
    38    15    37    1
