@<TRIPOS>MOLECULE
IMPHY001880
 63 68 0 0 0
SMALL
GASTEIGER

@<TRIPOS>ATOM
      1 O           7.2930   -0.9056    0.0000 O.3     1  UNL1       -0.3609
      2 O           4.9895   -2.7186    0.0000 O.3     1  UNL1       -0.3651
      3 O           7.2342    1.2186    0.0000 O.3     1  UNL1       -0.4636
      4 O           3.7319    0.2217    0.0000 O.3     1  UNL1       -0.4611
      5 O           9.4411   -0.9658    0.0000 O.3     1  UNL1       -0.3484
      6 O           6.3682    2.7186    0.0000 O.2     1  UNL1       -0.2502
      7 O          10.4289   -2.4490    0.0000 O.3     1  UNL1       -0.3544
      8 O           2.8486   -1.2682    0.0000 O.2     1  UNL1       -0.2512
      9 C           6.3842   -1.3229    0.0000 C.3     1  UNL1        0.1105
     10 C           6.3682   -0.2814    0.0000 C.3     1  UNL1        0.0439
     11 C           5.4862   -1.8507    0.0000 C.3     1  UNL1        0.1255
     12 C           5.5021    0.2186    0.0000 C.3     1  UNL1        0.0232
     13 C           5.5021    1.2186    0.0000 C.3     1  UNL1        0.0718
     14 C           4.5841   -1.3298    0.0000 C.3     1  UNL1        0.0188
     15 C           4.5921   -0.2882    0.0000 C.3     1  UNL1        0.1104
     16 C           6.5002   -2.3162    0.0000 C.3     1  UNL1       -0.0176
     17 C           6.5712    0.0885    0.0000 C.3     1  UNL1       -0.0411
     18 C           5.9895   -2.7148    0.0000 C.3     1  UNL1        0.0805
     19 C           7.2342    0.2186    0.0000 C.3     1  UNL1        0.1012
     20 C           7.9707   -1.6410    0.0000 C.3     1  UNL1        0.0983
     21 C           7.4807   -2.5127    0.0000 C.3     1  UNL1       -0.0187
     22 C           5.9240    1.2095    0.0000 C.3     1  UNL1       -0.0371
     23 C           6.6549    0.8841    0.0000 C.3     1  UNL1       -0.0513
     24 C           6.3682    1.7186    0.0000 C.2     1  UNL1        0.3135
     25 C           5.0021    2.0846    0.0000 C.3     1  UNL1       -0.0490
     26 C           8.6484   -2.3764    0.0000 C.3     1  UNL1        0.0297
     27 C           8.4606   -0.7692    0.0000 C.3     1  UNL1        0.0798
     28 C           9.5571   -1.9591    0.0000 C.3     1  UNL1        0.1616
     29 C           2.8602   -0.2682    0.0000 C.2     1  UNL1        0.3042
     30 C           2.0000    0.2418    0.0000 C.3     1  UNL1        0.0332
     31 C          11.2891   -1.9390    0.0000 C.3     1  UNL1        0.0394
     32 H           4.7660    0.6436    0.0000 H       1  UNL1        0.0354
     33 H           3.9741   -1.2190    0.0000 H       1  UNL1        0.0331
     34 H           4.3705   -1.9119    0.0000 H       1  UNL1        0.0331
     35 H           4.0522   -0.5931    0.0000 H       1  UNL1        0.0738
     36 H           5.8803   -2.3233    0.0000 H       1  UNL1        0.0295
     37 H           6.4426   -2.9335    0.0000 H       1  UNL1        0.0295
     38 H           6.9599   -0.3945    0.0000 H       1  UNL1        0.0273
     39 H           5.9796    0.2738    0.0000 H       1  UNL1        0.0273
     40 H           6.0995   -3.3249    0.0000 H       1  UNL1        0.0590
     41 H           6.5713   -2.5004    0.0000 H       1  UNL1        0.0590
     42 H           7.4462   -0.3640    0.0000 H       1  UNL1        0.0704
     43 H           7.8448    0.3263    0.0000 H       1  UNL1        0.0704
     44 H           7.2960   -3.1046    0.0000 H       1  UNL1        0.0295
     45 H           8.0500   -2.7584    0.0000 H       1  UNL1        0.0295
     46 H           6.3731    1.6370    0.0000 H       1  UNL1        0.0276
     47 H           5.7886    0.6045    0.0000 H       1  UNL1        0.0276
     48 H           7.2613    0.7552    0.0000 H       1  UNL1        0.0266
     49 H           6.8465    1.4738    0.0000 H       1  UNL1        0.0266
     50 H           5.5391    2.3946    0.0000 H       1  UNL1        0.0240
     51 H           4.6921    2.6216    0.0000 H       1  UNL1        0.0240
     52 H           4.4652    1.7746    0.0000 H       1  UNL1        0.0240
     53 H           8.1510   -2.7466    0.0000 H       1  UNL1        0.0343
     54 H           8.9645   -2.9097    0.0000 H       1  UNL1        0.0343
     55 H           8.6454   -0.1774    0.0000 H       1  UNL1        0.0589
     56 H           7.8913   -0.5236    0.0000 H       1  UNL1        0.0589
     57 H           9.5318   -2.5786    0.0000 H       1  UNL1        0.0910
     58 H           2.3162    0.7751    0.0000 H       1  UNL1        0.0342
     59 H           1.4667    0.5580    0.0000 H       1  UNL1        0.0342
     60 H           1.6838   -0.2915    0.0000 H       1  UNL1        0.0342
     61 H          11.6053   -2.4724    0.0000 H       1  UNL1        0.0525
     62 H          11.8224   -1.6229    0.0000 H       1  UNL1        0.0525
     63 H          10.9729   -1.4057    0.0000 H       1  UNL1        0.0525
@<TRIPOS>BOND
     1     9     1    1
     2    20     1    1
     3    11     2    1
     4     2    18    1
     5     3    19    1
     6     3    24    1
     7    15     4    1
     8     4    29    1
     9     5    27    1
    10     5    28    1
    11     6    24    2
    12    28     7    1
    13     7    31    1
    14     8    29    2
    15     9    10    1
    16     9    11    1
    17     9    16    1
    18    10    12    1
    19    10    17    1
    20    10    19    1
    21    11    14    1
    22    11    18    1
    23    12    13    1
    24    12    15    1
    25    12    32    1
    26    13    22    1
    27    13    24    1
    28    13    25    1
    29    14    15    1
    30    14    33    1
    31    14    34    1
    32    15    35    1
    33    16    21    1
    34    16    36    1
    35    16    37    1
    36    17    23    1
    37    17    38    1
    38    17    39    1
    39    18    40    1
    40    18    41    1
    41    19    42    1
    42    19    43    1
    43    20    21    1
    44    20    26    1
    45    20    27    1
    46    21    44    1
    47    21    45    1
    48    22    23    1
    49    22    46    1
    50    22    47    1
    51    23    48    1
    52    23    49    1
    53    25    50    1
    54    25    51    1
    55    25    52    1
    56    26    28    1
    57    26    53    1
    58    26    54    1
    59    27    55    1
    60    27    56    1
    61    28    57    1
    62    29    30    1
    63    30    58    1
    64    30    59    1
    65    30    60    1
    66    31    61    1
    67    31    62    1
    68    31    63    1
