@<TRIPOS>MOLECULE
IMPHY000334
 97 101 0 0 0
SMALL
GASTEIGER

@<TRIPOS>ATOM
      1 O           5.5931    0.2862    0.0000 O.3     1  UNL1       -0.3680
      2 O           8.9282    1.4532    0.0000 O.3     1  UNL1       -0.3799
      3 O           5.4641    2.4532    0.0000 O.3     1  UNL1       -0.4580
      4 O           9.7777    2.4141    0.0000 O.3     1  UNL1       -0.4582
      5 O           6.7142   -2.6964    0.0000 O.3     1  UNL1       -0.4545
      6 O           6.0820    5.6486    0.0000 O.2     1  UNL1       -0.4708
      7 O           7.5904   -3.9172    0.0000 O.3     1  UNL1       -0.4608
      8 O           5.0851   -3.0711    0.0000 O.2     1  UNL1       -0.2507
      9 O          10.3115   -1.2464    0.0000 O.3     1  UNL1       -0.4679
     10 O           4.5981    0.9532    0.0000 O.2     1  UNL1       -0.2508
     11 O           9.1638   -2.5436    0.0000 O.2     1  UNL1       -0.2509
     12 O          10.1349    4.1089    0.0000 O.2     1  UNL1       -0.2512
     13 O           9.1127   -4.7434    0.0000 O.2     1  UNL1       -0.2512
     14 C           7.1962    2.4532    0.0000 C.3     1  UNL1        0.0504
     15 C           7.1962    0.4532    0.0000 C.3     1  UNL1        0.0206
     16 C           8.0622    1.9532    0.0000 C.3     1  UNL1        0.1331
     17 C           6.9870   -0.5186    0.0000 C.3     1  UNL1        0.0108
     18 C           6.3301    0.9532    0.0000 C.3     1  UNL1        0.1036
     19 C           6.3301    1.9532    0.0000 C.3     1  UNL1        0.1385
     20 C           7.4054    3.4250    0.0000 C.3     1  UNL1        0.0025
     21 C           8.0622    0.9532    0.0000 C.2     1  UNL1       -0.0351
     22 C           5.9982   -0.6216    0.0000 C.3     1  UNL1        0.0756
     23 C           8.7992    2.6203    0.0000 C.3     1  UNL1        0.1366
     24 C           7.6659   -1.2183    0.0000 C.3     1  UNL1        0.0204
     25 C           8.3941    3.5281    0.0000 C.3     1  UNL1       -0.0049
     26 C           6.3301    2.9532    0.0000 C.3     1  UNL1       -0.0524
     27 C           7.9816   -0.4149    0.0000 C.3     1  UNL1       -0.0562
     28 C           7.5448   -2.1857    0.0000 C.3     1  UNL1        0.1483
     29 C           5.4782   -1.4463    0.0000 C.3     1  UNL1        0.0717
     30 C           6.7375    4.1694    0.0000 C.ar    1  UNL1       -0.0057
     31 C           8.6142   -0.9010    0.0000 C.3     1  UNL1        0.0521
     32 C           8.9282    0.4532    0.0000 C.2     1  UNL1       -0.0962
     33 C           5.7962   -2.3680    0.0000 C.2     1  UNL1        0.3102
     34 C           8.0674   -3.0383    0.0000 C.3     1  UNL1        0.1321
     35 C           8.5372   -2.3087    0.0000 C.3     1  UNL1       -0.0213
     36 C           5.7428    4.0666    0.0000 C.ar    1  UNL1       -0.0205
     37 C           6.9471    5.1471    0.0000 C.ar    1  UNL1        0.0951
     38 C           4.5981    1.9532    0.0000 C.2     1  UNL1        0.3077
     39 C           9.3632   -1.5636    0.0000 C.2     1  UNL1        0.3072
     40 C          10.4455    3.1584    0.0000 C.2     1  UNL1        0.3043
     41 C           5.3377    4.9808    0.0000 C.ar    1  UNL1        0.0919
     42 C           3.7320    2.4532    0.0000 C.3     1  UNL1        0.0473
     43 C          11.4240    2.9522    0.0000 C.3     1  UNL1        0.0332
     44 C           2.8660    1.9532    0.0000 C.3     1  UNL1       -0.0367
     45 C           8.1131   -4.7697    0.0000 C.2     1  UNL1        0.3041
     46 C          11.0604   -1.9090    0.0000 C.3     1  UNL1        0.0817
     47 C           2.0000    2.4532    0.0000 C.3     1  UNL1       -0.0622
     48 C           2.8660    0.9532    0.0000 C.3     1  UNL1       -0.0622
     49 C           7.6361   -5.6486    0.0000 C.3     1  UNL1        0.0332
     50 H           7.8832   -0.0473    0.0000 H       1  UNL1        0.0379
     51 H           5.5532    1.2980    0.0000 H       1  UNL1        0.0639
     52 H           5.7932    1.6432    0.0000 H       1  UNL1        0.0767
     53 H           7.6283    4.0036    0.0000 H       1  UNL1        0.0358
     54 H           5.1504   -0.5610    0.0000 H       1  UNL1        0.0607
     55 H           9.1888    3.1027    0.0000 H       1  UNL1        0.0767
     56 H           8.1456   -1.6112    0.0000 H       1  UNL1        0.0352
     57 H           8.9837    3.7199    0.0000 H       1  UNL1        0.0308
     58 H           8.2654    4.1346    0.0000 H       1  UNL1        0.0308
     59 H           6.6401    3.4902    0.0000 H       1  UNL1        0.0237
     60 H           5.7932    3.2632    0.0000 H       1  UNL1        0.0237
     61 H           6.0201    2.4163    0.0000 H       1  UNL1        0.0237
     62 H           8.0458   -1.0316    0.0000 H       1  UNL1        0.0236
     63 H           8.5982   -0.3506    0.0000 H       1  UNL1        0.0236
     64 H           7.9173    0.2017    0.0000 H       1  UNL1        0.0236
     65 H           5.0409   -1.0068    0.0000 H       1  UNL1        0.0403
     66 H           4.9521   -1.7744    0.0000 H       1  UNL1        0.0403
     67 H           9.4651    1.7632    0.0000 H       1  UNL1        0.2108
     68 H           9.0994   -0.5151    0.0000 H       1  UNL1        0.0382
     69 H           8.3184   -0.3562    0.0000 H       1  UNL1        0.0382
     70 H           8.9282   -0.1668    0.0000 H       1  UNL1        0.0535
     71 H           9.4651    0.7632    0.0000 H       1  UNL1        0.0535
     72 H           8.5527   -3.4242    0.0000 H       1  UNL1        0.0738
     73 H           8.5317   -2.6274    0.0000 H       1  UNL1        0.0738
     74 H           8.4610   -2.9240    0.0000 H       1  UNL1        0.0269
     75 H           9.1525   -2.3849    0.0000 H       1  UNL1        0.0269
     76 H           8.6134   -1.6934    0.0000 H       1  UNL1        0.0269
     77 H           5.4319    3.5302    0.0000 H       1  UNL1        0.0652
     78 H           7.5140    5.3983    0.0000 H       1  UNL1        0.1032
     79 H           4.7314    5.1108    0.0000 H       1  UNL1        0.1029
     80 H           4.1306    2.9282    0.0000 H       1  UNL1        0.0380
     81 H           3.3335    2.9282    0.0000 H       1  UNL1        0.0380
     82 H          11.2962    2.3455    0.0000 H       1  UNL1        0.0342
     83 H          12.0307    2.8243    0.0000 H       1  UNL1        0.0342
     84 H          11.5519    3.5589    0.0000 H       1  UNL1        0.0342
     85 H           2.8660    2.5732    0.0000 H       1  UNL1        0.0301
     86 H          10.6496   -2.3733    0.0000 H       1  UNL1        0.0661
     87 H          11.5248   -2.3198    0.0000 H       1  UNL1        0.0661
     88 H          11.4713   -1.4446    0.0000 H       1  UNL1        0.0661
     89 H           2.2460    0.9532    0.0000 H       1  UNL1        0.0232
     90 H           2.8660    0.3332    0.0000 H       1  UNL1        0.0232
     91 H           3.4860    0.9532    0.0000 H       1  UNL1        0.0232
     92 H           2.3100    2.9902    0.0000 H       1  UNL1        0.0232
     93 H           1.4631    2.7632    0.0000 H       1  UNL1        0.0232
     94 H           1.6900    1.9163    0.0000 H       1  UNL1        0.0232
     95 H           7.0911   -5.3529    0.0000 H       1  UNL1        0.0342
     96 H           7.3403   -6.1936    0.0000 H       1  UNL1        0.0342
     97 H           8.1810   -5.9444    0.0000 H       1  UNL1        0.0342
@<TRIPOS>BOND
     1     1    18    1
     2     1    22    1
     3    16     2    1
     4     2    67    1
     5     3    19    1
     6     3    38    1
     7    23     4    1
     8     4    40    1
     9     5    28    1
    10     5    33    1
    11     6    37   ar
    12     6    41   ar
    13     7    34    1
    14     7    45    1
    15     8    33    2
    16     9    39    1
    17     9    46    1
    18    10    38    2
    19    11    39    2
    20    12    40    2
    21    13    45    2
    22    14    16    1
    23    14    19    1
    24    14    20    1
    25    14    26    1
    26    15    17    1
    27    15    18    1
    28    15    21    1
    29    15    50    1
    30    16    21    1
    31    16    23    1
    32    17    22    1
    33    17    24    1
    34    17    27    1
    35    18    19    1
    36    18    51    1
    37    19    52    1
    38    20    25    1
    39    20    30    1
    40    20    53    1
    41    21    32    2
    42    22    29    1
    43    22    54    1
    44    23    25    1
    45    23    55    1
    46    24    28    1
    47    24    31    1
    48    24    56    1
    49    25    57    1
    50    25    58    1
    51    26    59    1
    52    26    60    1
    53    26    61    1
    54    27    62    1
    55    27    63    1
    56    27    64    1
    57    28    34    1
    58    28    35    1
    59    29    33    1
    60    29    65    1
    61    29    66    1
    62    30    36   ar
    63    30    37   ar
    64    31    39    1
    65    31    68    1
    66    31    69    1
    67    32    70    1
    68    32    71    1
    69    34    72    1
    70    34    73    1
    71    35    74    1
    72    35    75    1
    73    35    76    1
    74    36    41   ar
    75    36    77    1
    76    37    78    1
    77    38    42    1
    78    40    43    1
    79    41    79    1
    80    42    44    1
    81    42    80    1
    82    42    81    1
    83    43    82    1
    84    43    83    1
    85    43    84    1
    86    44    47    1
    87    44    48    1
    88    44    85    1
    89    45    49    1
    90    46    86    1
    91    46    87    1
    92    46    88    1
    93    47    92    1
    94    47    93    1
    95    47    94    1
    96    48    89    1
    97    48    90    1
    98    48    91    1
    99    49    95    1
   100    49    96    1
   101    49    97    1
