@<TRIPOS>MOLECULE
IMPHY017320
 24 24 0 0 0
SMALL
GASTEIGER

@<TRIPOS>ATOM
      1 O           3.0878   -0.8378    0.0000 O.2     1  UNL1       -0.4670
      2 C           4.8479   -0.5590    0.0000 C.3     1  UNL1        0.0202
      3 C           3.8968   -0.2500    0.0000 C.ar    1  UNL1        0.1104
      4 C           5.7989   -0.8680    0.0000 C.3     1  UNL1       -0.0532
      5 C           4.5388   -1.5101    0.0000 C.3     1  UNL1       -0.0532
      6 C           5.1569    0.3920    0.0000 C.3     1  UNL1       -0.0532
      7 C           3.5878    0.7011    0.0000 C.ar    1  UNL1       -0.0173
      8 C           2.5878    0.7011    0.0000 C.ar    1  UNL1       -0.0125
      9 C           2.2788   -0.2500    0.0000 C.ar    1  UNL1        0.0950
     10 C           2.0000    1.5101    0.0000 C.3     1  UNL1       -0.0367
     11 H           5.6073   -1.4577    0.0000 H       1  UNL1        0.0239
     12 H           6.3886   -1.0596    0.0000 H       1  UNL1        0.0239
     13 H           5.9905   -0.2784    0.0000 H       1  UNL1        0.0239
     14 H           3.9492   -1.3185    0.0000 H       1  UNL1        0.0239
     15 H           4.3472   -2.0997    0.0000 H       1  UNL1        0.0239
     16 H           5.1285   -1.7017    0.0000 H       1  UNL1        0.0239
     17 H           5.7465    0.2004    0.0000 H       1  UNL1        0.0239
     18 H           5.3485    0.9817    0.0000 H       1  UNL1        0.0239
     19 H           4.5672    0.5836    0.0000 H       1  UNL1        0.0239
     20 H           3.9522    1.2026    0.0000 H       1  UNL1        0.0655
     21 H           1.6891   -0.4416    0.0000 H       1  UNL1        0.1032
     22 H           2.5016    1.8745    0.0000 H       1  UNL1        0.0278
     23 H           1.6356    2.0117    0.0000 H       1  UNL1        0.0278
     24 H           1.4984    1.1456    0.0000 H       1  UNL1        0.0278
@<TRIPOS>BOND
     1     1     3   ar
     2     1     9   ar
     3     2     3    1
     4     2     4    1
     5     2     5    1
     6     2     6    1
     7     3     7   ar
     8     4    11    1
     9     4    12    1
    10     4    13    1
    11     5    14    1
    12     5    15    1
    13     5    16    1
    14     6    17    1
    15     6    18    1
    16     6    19    1
    17     7     8   ar
    18     7    20    1
    19     8     9   ar
    20     8    10    1
    21     9    21    1
    22    10    22    1
    23    10    23    1
    24    10    24    1
