@<TRIPOS>MOLECULE
IMPHY002588
 27 29 0 0 0
SMALL
GASTEIGER

@<TRIPOS>ATOM
      1 O           4.6660   -0.2673    0.0000 O.2     1  UNL1       -0.2039
      2 C           3.8000    1.2327    0.0000 C.ar    1  UNL1        0.0792
      3 C           5.5321    0.2327    0.0000 C.ar    1  UNL1        0.3635
      4 C           3.8000    0.2327    0.0000 C.ar    1  UNL1        0.3635
      5 C           6.3981   -0.2673    0.0000 C.ar    1  UNL1        0.0789
      6 C           4.6660    1.7327    0.0000 C.ar    1  UNL1       -0.0367
      7 C           5.5321    1.2327    0.0000 C.ar    1  UNL1        0.0440
      8 C           2.9061    1.7673    0.0000 C.ar    1  UNL1       -0.0456
      9 C           2.9061   -0.3020    0.0000 C.ar    1  UNL1        0.0431
     10 C           6.3981   -1.2673    0.0000 C.ar    1  UNL1       -0.0456
     11 C           7.2641    0.2327    0.0000 C.ar    1  UNL1       -0.0456
     12 C           2.0000    1.2535    0.0000 C.ar    1  UNL1       -0.0606
     13 C           2.0000    0.2119    0.0000 C.ar    1  UNL1       -0.0528
     14 C           7.2641   -1.7673    0.0000 C.ar    1  UNL1       -0.0609
     15 C           8.1301   -0.2673    0.0000 C.ar    1  UNL1       -0.0609
     16 C           8.1301   -1.2673    0.0000 C.ar    1  UNL1       -0.0617
     17 H           4.6660    2.3527    0.0000 H       1  UNL1        0.0629
     18 H           6.0690    1.5427    0.0000 H       1  UNL1        0.0712
     19 H           2.9132    2.3873    0.0000 H       1  UNL1        0.0626
     20 H           2.9132   -0.9220    0.0000 H       1  UNL1        0.0711
     21 H           5.8612   -1.5773    0.0000 H       1  UNL1        0.0626
     22 H           7.2641    0.8527    0.0000 H       1  UNL1        0.0626
     23 H           1.4643    1.5656    0.0000 H       1  UNL1        0.0618
     24 H           1.4643   -0.1002    0.0000 H       1  UNL1        0.0621
     25 H           7.2641   -2.3873    0.0000 H       1  UNL1        0.0618
     26 H           8.6671    0.0427    0.0000 H       1  UNL1        0.0618
     27 H           8.6671   -1.5773    0.0000 H       1  UNL1        0.0618
@<TRIPOS>UNITY_ATOM_ATTR
1 1
charge 1
@<TRIPOS>BOND
     1     1     3   ar
     2     1     4   ar
     3     2     4   ar
     4     2     6   ar
     5     2     8   ar
     6     3     5    1
     7     3     7   ar
     8     4     9   ar
     9     5    10   ar
    10     5    11   ar
    11     6     7   ar
    12     6    17    1
    13     7    18    1
    14     8    12   ar
    15     8    19    1
    16     9    13   ar
    17     9    20    1
    18    10    14   ar
    19    10    21    1
    20    11    15   ar
    21    11    22    1
    22    12    13   ar
    23    12    23    1
    24    13    24    1
    25    14    16   ar
    26    14    25    1
    27    15    16   ar
    28    15    26    1
    29    16    27    1
