@<TRIPOS>MOLECULE
IMPHY000536
 25 28 0 0 0
SMALL
GASTEIGER

@<TRIPOS>ATOM
      1 C           1.7254    4.6439    0.0000 C.3     1  UNL1        0.0320
      2 C           2.5960    4.1387    0.0000 C.3     1  UNL1        0.1524
      3 C           1.7254    5.6407    0.0000 C.3     1  UNL1        0.0526
      4 C           0.8616    4.1387    0.0000 C.3     1  UNL1        0.0026
      5 C           1.7276    3.6425    0.0000 C.3     1  UNL1        0.0027
      6 C           3.4665    4.6371    0.0000 C.3     1  UNL1        0.1556
      7 C           2.2509    3.1982    0.0000 C.3     1  UNL1        0.0377
      8 O           3.2388    3.3696    0.0000 O.3     1  UNL1       -0.2231
      9 C           0.8593    6.1369    0.0000 C.3     1  UNL1        0.0930
     10 C           2.5937    6.1460    0.0000 C.3     1  UNL1        0.1719
     11 C           0.0000    4.6371    0.0000 C.3     1  UNL1        0.0006
     12 C           3.4665    5.6407    0.0000 C.3     1  UNL1        0.0765
     13 O           3.8049    3.6966    0.0000 O.3     1  UNL1       -0.2230
     14 C           4.4499    4.8108    0.0000 C.3     1  UNL1        0.0356
     15 C           3.0177    2.5554    0.0000 C.3     1  UNL1        0.0323
     16 C           1.2179    7.0684    0.0000 C.2     1  UNL1        0.3159
     17 C           0.0000    5.6385    0.0000 C.3     1  UNL1        0.0107
     18 C           0.0992    6.7865    0.0000 C.3     1  UNL1        0.0112
     19 O           2.2013    7.0684    0.0000 O.3     1  UNL1       -0.4522
     20 C           2.6726    1.6149    0.0000 C.ar    1  UNL1        0.0186
     21 O           0.6518    7.8939    0.0000 O.2     1  UNL1       -0.2501
     22 C           1.7118    1.3420    0.0000 C.ar    1  UNL1        0.1754
     23 C           3.2297    0.7849    0.0000 C.ar    1  UNL1        0.0395
     24 O           1.6735    0.3428    0.0000 O.2     1  UNL1       -0.4477
     25 C           2.6140    0.0000    0.0000 C.ar    1  UNL1        0.1794
@<TRIPOS>BOND
     1     1     2    1
     2     1     3    1
     3     1     4    1
     4     1     5    1
     5     2     6    1
     6     2     7    1
     7     2     8    1
     8     3     9    1
     9     3    10    1
    10     4    11    1
    11     6    12    1
    12     6    13    1
    13     6    14    1
    14     7    15    1
    15     9    16    1
    16     9    17    1
    17     9    18    1
    18    10    12    1
    19    10    19    1
    20    11    17    1
    21    15    20    1
    22    16    19    1
    23    16    21    2
    24    20    22   ar
    25    20    23   ar
    26    22    24   ar
    27    23    25   ar
    28    24    25   ar
