@<TRIPOS>MOLECULE
IMPHY006033
 20 19 0 0 0
SMALL
GASTEIGER

@<TRIPOS>ATOM
      1 O           5.4641    0.7500    0.0000 O.3     1  UNL1       -0.4649
      2 O           4.5981   -0.7500    0.0000 O.2     1  UNL1       -0.2509
      3 C           2.8660    0.2500    0.0000 C.3     1  UNL1       -0.0458
      4 C           3.7320    0.7500    0.0000 C.3     1  UNL1        0.0447
      5 C           2.0000    0.7500    0.0000 C.3     1  UNL1       -0.0648
      6 C           4.5981    0.2500    0.0000 C.2     1  UNL1        0.3071
      7 C           6.3301    0.2500    0.0000 C.3     1  UNL1        0.0896
      8 C           7.1962    0.7500    0.0000 C.3     1  UNL1       -0.0306
      9 H           2.4675   -0.2249    0.0000 H       1  UNL1        0.0268
     10 H           3.2646   -0.2249    0.0000 H       1  UNL1        0.0268
     11 H           4.1306    1.2250    0.0000 H       1  UNL1        0.0377
     12 H           3.3335    1.2250    0.0000 H       1  UNL1        0.0377
     13 H           2.3100    1.2869    0.0000 H       1  UNL1        0.0230
     14 H           1.4631    1.0600    0.0000 H       1  UNL1        0.0230
     15 H           1.6900    0.2131    0.0000 H       1  UNL1        0.0230
     16 H           5.9316   -0.2249    0.0000 H       1  UNL1        0.0694
     17 H           6.7287   -0.2249    0.0000 H       1  UNL1        0.0694
     18 H           7.5062    0.2131    0.0000 H       1  UNL1        0.0262
     19 H           7.7331    1.0600    0.0000 H       1  UNL1        0.0262
     20 H           6.8862    1.2869    0.0000 H       1  UNL1        0.0262
@<TRIPOS>BOND
     1     1     6    1
     2     1     7    1
     3     2     6    2
     4     3     4    1
     5     3     5    1
     6     3     9    1
     7     3    10    1
     8     4     6    1
     9     4    11    1
    10     4    12    1
    11     5    13    1
    12     5    14    1
    13     5    15    1
    14     7     8    1
    15     7    16    1
    16     7    17    1
    17     8    18    1
    18     8    19    1
    19     8    20    1
