@<TRIPOS>MOLECULE
IMPHY004428
 30 29 0 0 0
SMALL
GASTEIGER

@<TRIPOS>ATOM
      1 O           6.3301    0.0000    0.0000 O.3     1  UNL1       -0.4641
      2 O           7.1962   -1.5000    0.0000 O.2     1  UNL1       -0.2506
      3 C           8.0622    0.0000    0.0000 C.3     1  UNL1        0.0508
      4 C           4.5981    0.0000    0.0000 C.3     1  UNL1       -0.0003
      5 C           5.4641   -0.5000    0.0000 C.3     1  UNL1        0.0959
      6 C           7.1962   -0.5000    0.0000 C.2     1  UNL1        0.3097
      7 C           8.9282   -0.5000    0.0000 C.3     1  UNL1       -0.0525
      8 C           8.0622    1.0000    0.0000 C.3     1  UNL1       -0.0525
      9 C           3.7320   -0.5000    0.0000 C.2     1  UNL1       -0.0847
     10 C           2.8660   -0.0000    0.0000 C.2     1  UNL1       -0.0881
     11 C           2.8660    1.0000    0.0000 C.3     1  UNL1       -0.0376
     12 C           2.0000    1.5000    0.0000 C.3     1  UNL1       -0.0618
     13 H           8.0622   -0.6200    0.0000 H       1  UNL1        0.0408
     14 H           4.9966    0.4749    0.0000 H       1  UNL1        0.0340
     15 H           4.1996    0.4749    0.0000 H       1  UNL1        0.0340
     16 H           5.0656   -0.9749    0.0000 H       1  UNL1        0.0700
     17 H           5.8626   -0.9749    0.0000 H       1  UNL1        0.0700
     18 H           8.6182   -1.0369    0.0000 H       1  UNL1        0.0237
     19 H           9.4651   -0.8100    0.0000 H       1  UNL1        0.0237
     20 H           9.2382    0.0369    0.0000 H       1  UNL1        0.0237
     21 H           8.6822    1.0000    0.0000 H       1  UNL1        0.0237
     22 H           8.0622    1.6200    0.0000 H       1  UNL1        0.0237
     23 H           7.4422    1.0000    0.0000 H       1  UNL1        0.0237
     24 H           3.7320   -1.1200    0.0000 H       1  UNL1        0.0570
     25 H           3.4766    0.8923    0.0000 H       1  UNL1        0.0305
     26 H           3.0781    1.5826    0.0000 H       1  UNL1        0.0305
     27 H           2.3291   -0.3100    0.0000 H       1  UNL1        0.0569
     28 H           2.3100    2.0369    0.0000 H       1  UNL1        0.0233
     29 H           1.4631    1.8100    0.0000 H       1  UNL1        0.0233
     30 H           1.6900    0.9631    0.0000 H       1  UNL1        0.0233
@<TRIPOS>BOND
     1     1     5    1
     2     1     6    1
     3     2     6    2
     4     3     6    1
     5     3     7    1
     6     3     8    1
     7     3    13    1
     8     4     5    1
     9     4     9    1
    10     4    14    1
    11     4    15    1
    12     5    16    1
    13     5    17    1
    14     7    18    1
    15     7    19    1
    16     7    20    1
    17     8    21    1
    18     8    22    1
    19     8    23    1
    20     9    10    2
    21     9    24    1
    22    10    11    1
    23    10    27    1
    24    11    12    1
    25    11    25    1
    26    11    26    1
    27    12    28    1
    28    12    29    1
    29    12    30    1
