@<TRIPOS>MOLECULE
IMPHY004470
 48 49 0 0 0
SMALL
GASTEIGER

@<TRIPOS>ATOM
      1 CL          8.6489    3.3800    0.0000 Cl      1  UNL1        0.0000
      2 O           0.6161    5.6442    0.0000 O.3     2  UNL2       -0.4914
      3 O           0.6161    3.5958    0.0000 O.3     2  UNL2       -0.5033
      4 O           0.6822    0.6200    0.0000 O.3     2  UNL2       -0.5068
      5 N           5.0123    4.1200    0.0000 N.4     2  UNL2        0.2449
      6 C           4.1463    3.6200    0.0000 C.3     2  UNL2        0.0107
      7 C           5.0123    5.1200    0.0000 C.3     2  UNL2       -0.0259
      8 C           3.2802    4.1200    0.0000 C.ar    2  UNL2        0.0076
      9 C           4.1463    5.6200    0.0000 C.3     2  UNL2        0.0133
     10 C           4.1463    2.6200    0.0000 C.3     2  UNL2        0.0200
     11 C           3.2802    5.1200    0.0000 C.ar    2  UNL2       -0.0302
     12 C           6.0123    4.1200    0.0000 C.3     2  UNL2       -0.0409
     13 C           5.5123    3.2540    0.0000 C.3     2  UNL2       -0.0409
     14 C           2.3863    3.5853    0.0000 C.ar    2  UNL2       -0.0078
     15 C           3.2802    2.1200    0.0000 C.ar    2  UNL2       -0.0415
     16 C           2.3863    5.6547    0.0000 C.ar    2  UNL2       -0.0125
     17 C           1.4802    4.0992    0.0000 C.ar    2  UNL2        0.1589
     18 C           1.4802    5.1408    0.0000 C.ar    2  UNL2        0.1615
     19 C           2.4142    2.6200    0.0000 C.ar    2  UNL2       -0.0549
     20 C           3.2802    1.1200    0.0000 C.ar    2  UNL2       -0.0549
     21 C           1.5482    2.1200    0.0000 C.ar    2  UNL2       -0.0199
     22 C           2.4142    0.6200    0.0000 C.ar    2  UNL2       -0.0199
     23 C           1.5482    1.1200    0.0000 C.ar    2  UNL2        0.1169
     24 C           0.6200    6.6441    0.0000 C.3     2  UNL2        0.0790
     25 H           4.6832    3.3100    0.0000 H       2  UNL2        0.0908
     26 H           5.6229    5.0123    0.0000 H       2  UNL2        0.0818
     27 H           5.2243    5.7026    0.0000 H       2  UNL2        0.0818
     28 H           4.5448    6.0950    0.0000 H       2  UNL2        0.0365
     29 H           3.7477    6.0950    0.0000 H       2  UNL2        0.0365
     30 H           4.3583    2.0374    0.0000 H       2  UNL2        0.0372
     31 H           4.7568    2.7277    0.0000 H       2  UNL2        0.0372
     32 H           6.0123    3.5000    0.0000 H       2  UNL2        0.0778
     33 H           4.9754    2.9440    0.0000 H       2  UNL2        0.0778
     34 H           5.8223    2.7170    0.0000 H       2  UNL2        0.0778
     35 H           6.0492    3.5640    0.0000 H       2  UNL2        0.0778
     36 H           6.6323    4.1200    0.0000 H       2  UNL2        0.0778
     37 H           6.0123    4.7400    0.0000 H       2  UNL2        0.0778
     38 H           2.3935    2.9654    0.0000 H       2  UNL2        0.0660
     39 H           2.3935    6.2746    0.0000 H       2  UNL2        0.0658
     40 H           2.4142    3.2400    0.0000 H       2  UNL2        0.0621
     41 H           3.8172    0.8100    0.0000 H       2  UNL2        0.0621
     42 H           1.0112    2.4300    0.0000 H       2  UNL2        0.0654
     43 H           2.4142    0.0000    0.0000 H       2  UNL2        0.0654
     44 H           0.0780    3.9038    0.0000 H       2  UNL2        0.2923
     45 H           1.2400    6.6418    0.0000 H       2  UNL2        0.0660
     46 H           0.6224    7.2641    0.0000 H       2  UNL2        0.0660
     47 H           0.0000    6.6465    0.0000 H       2  UNL2        0.0660
     48 H           0.6822    0.0000    0.0000 H       2  UNL2        0.2921
@<TRIPOS>UNITY_ATOM_ATTR
1 1
charge -1
5 1
charge 1
@<TRIPOS>BOND
     1     2    18    1
     2     2    24    1
     3     3    17    1
     4     3    44    1
     5     4    23    1
     6     4    48    1
     7     5     6    1
     8     5     7    1
     9     5    12    1
    10     5    13    1
    11     6     8    1
    12     6    10    1
    13     6    25    1
    14     7     9    1
    15     7    26    1
    16     7    27    1
    17     8    11   ar
    18     8    14   ar
    19     9    11    1
    20     9    28    1
    21     9    29    1
    22    10    15    1
    23    10    30    1
    24    10    31    1
    25    11    16   ar
    26    12    32    1
    27    12    36    1
    28    12    37    1
    29    13    33    1
    30    13    34    1
    31    13    35    1
    32    14    17   ar
    33    14    38    1
    34    15    19   ar
    35    15    20   ar
    36    16    18   ar
    37    16    39    1
    38    17    18   ar
    39    19    21   ar
    40    19    40    1
    41    20    22   ar
    42    20    41    1
    43    21    23   ar
    44    21    42    1
    45    22    23   ar
    46    22    43    1
    47    24    45    1
    48    24    46    1
    49    24    47    1
