@<TRIPOS>MOLECULE
IMPHY006478
 37 39 0 0 0
SMALL
GASTEIGER

@<TRIPOS>ATOM
      1 O           4.9769    2.3843    0.0000 O.2     1  UNL1       -0.2971
      2 C           4.0430   -0.7073    0.0000 C.3     1  UNL1       -0.0223
      3 C           3.1420   -0.2734    0.0000 C.3     1  UNL1       -0.0293
      4 C           2.9195    0.7015    0.0000 C.3     1  UNL1       -0.0220
      5 C           3.5430    1.4834    0.0000 C.3     1  UNL1        0.0234
      6 C           4.1499    0.4695    0.0000 C.3     1  UNL1       -0.0368
      7 C           3.9070   -1.6920    0.0000 C.3     1  UNL1       -0.0379
      8 C           2.4569   -0.9937    0.0000 C.3     1  UNL1       -0.0489
      9 C           4.9440   -0.2734    0.0000 C.3     1  UNL1       -0.0401
     10 C           2.9288   -1.8687    0.0000 C.3     1  UNL1       -0.0497
     11 C           5.1665    0.7015    0.0000 C.3     1  UNL1        0.0066
     12 C           4.5430    1.4834    0.0000 C.2     1  UNL1        0.1370
     13 C           2.2616    1.4546    0.0000 C.3     1  UNL1       -0.0589
     14 C           2.0000    0.3085    0.0000 C.3     1  UNL1       -0.0589
     15 C           4.6286   -2.3843    0.0000 C.3     1  UNL1       -0.0619
     16 H           2.3224   -0.0483    0.0000 H       1  UNL1        0.0312
     17 H           3.3539    2.3120    0.0000 H       1  UNL1        0.0383
     18 H           4.7199    0.2257    0.0000 H       1  UNL1        0.0278
     19 H           4.5577    0.9365    0.0000 H       1  UNL1        0.0278
     20 H           3.7279   -2.2856    0.0000 H       1  UNL1        0.0304
     21 H           2.0551   -0.5216    0.0000 H       1  UNL1        0.0268
     22 H           1.9452   -1.3437    0.0000 H       1  UNL1        0.0268
     23 H           5.0820   -0.8779    0.0000 H       1  UNL1        0.0275
     24 H           5.5640   -0.2734    0.0000 H       1  UNL1        0.0275
     25 H           2.3551   -2.1040    0.0000 H       1  UNL1        0.0268
     26 H           3.1025   -2.4638    0.0000 H       1  UNL1        0.0268
     27 H           5.7251    0.4325    0.0000 H       1  UNL1        0.0342
     28 H           5.5531    1.1863    0.0000 H       1  UNL1        0.0342
     29 H           2.7285    1.8625    0.0000 H       1  UNL1        0.0235
     30 H           1.8537    1.9215    0.0000 H       1  UNL1        0.0235
     31 H           1.7947    1.0467    0.0000 H       1  UNL1        0.0235
     32 H           1.7563    0.8786    0.0000 H       1  UNL1        0.0235
     33 H           1.4299    0.0648    0.0000 H       1  UNL1        0.0235
     34 H           2.2437   -0.2616    0.0000 H       1  UNL1        0.0235
     35 H           4.1994   -2.8317    0.0000 H       1  UNL1        0.0233
     36 H           5.0760   -2.8136    0.0000 H       1  UNL1        0.0233
     37 H           5.0578   -1.9369    0.0000 H       1  UNL1        0.0233
@<TRIPOS>BOND
     1     1    12    2
     2     2     3    1
     3     2     6    1
     4     2     7    1
     5     2     9    1
     6     3     4    1
     7     3     8    1
     8     3    16    1
     9     4     5    1
    10     4    13    1
    11     4    14    1
    12     5     6    1
    13     5    12    1
    14     5    17    1
    15     6    18    1
    16     6    19    1
    17     7    10    1
    18     7    15    1
    19     7    20    1
    20     8    10    1
    21     8    21    1
    22     8    22    1
    23     9    11    1
    24     9    23    1
    25     9    24    1
    26    10    25    1
    27    10    26    1
    28    11    12    1
    29    11    27    1
    30    11    28    1
    31    13    29    1
    32    13    30    1
    33    13    31    1
    34    14    32    1
    35    14    33    1
    36    14    34    1
    37    15    35    1
    38    15    36    1
    39    15    37    1
