@<TRIPOS>MOLECULE
IMPHY002639
 46 46 0 0 0
SMALL
GASTEIGER

@<TRIPOS>ATOM
      1 O           4.2690   -0.3450    0.0000 O.3     1  UNL1       -0.3405
      2 O           6.0010   -0.3450    0.0000 O.3     1  UNL1       -0.3403
      3 O           4.2690   -3.3450    0.0000 O.3     1  UNL1       -0.3864
      4 O           6.0010   -2.3450    0.0000 O.3     1  UNL1       -0.3841
      5 O           2.5369   -2.3450    0.0000 O.3     1  UNL1       -0.3865
      6 O           7.7331    0.6550    0.0000 O.3     1  UNL1       -0.3767
      7 O           2.5369    0.6550    0.0000 O.3     1  UNL1       -0.3924
      8 O           5.1350    2.1550    0.0000 O.3     1  UNL1       -0.3894
      9 O           7.7331    3.6550    0.0000 O.2     1  UNL1       -0.3009
     10 C           4.2690   -2.3450    0.0000 C.3     1  UNL1        0.1141
     11 C           5.1350   -1.8450    0.0000 C.3     1  UNL1        0.1341
     12 C           3.4030   -1.8450    0.0000 C.3     1  UNL1        0.1119
     13 C           5.1350   -0.8450    0.0000 C.3     1  UNL1        0.1884
     14 C           3.4030   -0.8450    0.0000 C.3     1  UNL1        0.1130
     15 C           6.0010    0.6550    0.0000 C.3     1  UNL1        0.1137
     16 C           6.8671    1.1550    0.0000 C.3     1  UNL1        0.0933
     17 C           2.5369   -0.3450    0.0000 C.3     1  UNL1        0.0730
     18 C           5.1350    1.1550    0.0000 C.3     1  UNL1        0.0811
     19 C           6.8671    2.1550    0.0000 C.3     1  UNL1        0.0316
     20 C           4.2690    0.6550    0.0000 C.3     1  UNL1       -0.0364
     21 C           7.7331    2.6550    0.0000 C.2     1  UNL1        0.1228
     22 C           8.5991    1.1550    0.0000 C.3     1  UNL1        0.0369
     23 H           4.8059   -2.6550    0.0000 H       1  UNL1        0.0648
     24 H           5.6720   -1.5350    0.0000 H       1  UNL1        0.0671
     25 H           3.4030   -2.4650    0.0000 H       1  UNL1        0.0647
     26 H           5.1350   -0.2250    0.0000 H       1  UNL1        0.0938
     27 H           3.4030   -0.2250    0.0000 H       1  UNL1        0.0647
     28 H           6.5380    0.3450    0.0000 H       1  UNL1        0.0649
     29 H           7.4040    1.4650    0.0000 H       1  UNL1        0.0627
     30 H           1.9264   -0.2373    0.0000 H       1  UNL1        0.0584
     31 H           2.3249   -0.9276    0.0000 H       1  UNL1        0.0584
     32 H           5.6720    1.4650    0.0000 H       1  UNL1        0.0617
     33 H           3.7320   -3.6550    0.0000 H       1  UNL1        0.2100
     34 H           6.0010   -2.9650    0.0000 H       1  UNL1        0.2101
     35 H           2.0000   -2.0350    0.0000 H       1  UNL1        0.2100
     36 H           6.6550    2.7376    0.0000 H       1  UNL1        0.0365
     37 H           6.2565    2.0473    0.0000 H       1  UNL1        0.0365
     38 H           3.9590    1.1919    0.0000 H       1  UNL1        0.0255
     39 H           3.7320    0.3450    0.0000 H       1  UNL1        0.0255
     40 H           4.5790    0.1181    0.0000 H       1  UNL1        0.0255
     41 H           2.0000    0.9650    0.0000 H       1  UNL1        0.2095
     42 H           4.5981    2.4650    0.0000 H       1  UNL1        0.2099
     43 H           8.2700    2.3450    0.0000 H       1  UNL1        0.1027
     44 H           8.9091    0.6181    0.0000 H       1  UNL1        0.0524
     45 H           9.1360    1.4650    0.0000 H       1  UNL1        0.0524
     46 H           8.2891    1.6919    0.0000 H       1  UNL1        0.0524
@<TRIPOS>BOND
     1     1    13    1
     2     1    14    1
     3    13     2    1
     4    15     2    1
     5    10     3    1
     6     3    33    1
     7    11     4    1
     8     4    34    1
     9    12     5    1
    10     5    35    1
    11    16     6    1
    12     6    22    1
    13     7    17    1
    14     7    41    1
    15    18     8    1
    16     8    42    1
    17     9    21    2
    18    10    11    1
    19    10    12    1
    20    10    23    1
    21    11    13    1
    22    11    24    1
    23    12    14    1
    24    12    25    1
    25    13    26    1
    26    14    17    1
    27    14    27    1
    28    15    16    1
    29    15    18    1
    30    15    28    1
    31    16    19    1
    32    16    29    1
    33    17    30    1
    34    17    31    1
    35    18    20    1
    36    18    32    1
    37    19    21    1
    38    19    36    1
    39    19    37    1
    40    20    38    1
    41    20    39    1
    42    20    40    1
    43    21    43    1
    44    22    44    1
    45    22    45    1
    46    22    46    1
