@<TRIPOS>MOLECULE
IMPHY013735
 19 19 0 0 0
SMALL
GASTEIGER

@<TRIPOS>ATOM
      1 O           2.8660   -2.7500    0.0000 O.3     1  UNL1       -0.5068
      2 O           3.7320    2.7500    0.0000 O.3     1  UNL1       -0.4804
      3 O           4.5981    1.2500    0.0000 O.2     1  UNL1       -0.2507
      4 C           2.8660    0.2500    0.0000 C.ar    1  UNL1       -0.0365
      5 C           2.8660    1.2500    0.0000 C.3     1  UNL1        0.0699
      6 C           3.7320   -0.2500    0.0000 C.ar    1  UNL1       -0.0546
      7 C           2.0000   -0.2500    0.0000 C.ar    1  UNL1       -0.0546
      8 C           3.7320   -1.2500    0.0000 C.ar    1  UNL1       -0.0199
      9 C           2.0000   -1.2500    0.0000 C.ar    1  UNL1       -0.0199
     10 C           2.8660   -1.7500    0.0000 C.ar    1  UNL1        0.1169
     11 C           3.7320    1.7500    0.0000 C.2     1  UNL1        0.3091
     12 H           2.6540    1.8326    0.0000 H       1  UNL1        0.0426
     13 H           2.2554    1.1423    0.0000 H       1  UNL1        0.0426
     14 H           4.2690    0.0600    0.0000 H       1  UNL1        0.0622
     15 H           1.4631    0.0600    0.0000 H       1  UNL1        0.0622
     16 H           4.2690   -1.5600    0.0000 H       1  UNL1        0.0654
     17 H           1.4631   -1.5600    0.0000 H       1  UNL1        0.0654
     18 H           2.3291   -3.0600    0.0000 H       1  UNL1        0.2921
     19 H           4.2690    3.0600    0.0000 H       1  UNL1        0.2951
@<TRIPOS>BOND
     1     1    10    1
     2     1    18    1
     3     2    11    1
     4     2    19    1
     5     3    11    2
     6     4     5    1
     7     4     6   ar
     8     4     7   ar
     9     5    11    1
    10     5    12    1
    11     5    13    1
    12     6     8   ar
    13     6    14    1
    14     7     9   ar
    15     7    15    1
    16     8    10   ar
    17     8    16    1
    18     9    10   ar
    19     9    17    1
