@<TRIPOS>MOLECULE
IMPHY000768
 63 68 0 0 0
SMALL
GASTEIGER

@<TRIPOS>ATOM
      1 O           4.3354    1.2343    0.0000 O.2     1  UNL1       -0.4443
      2 O           5.4398   -3.5278    0.0000 O.3     1  UNL1       -0.4555
      3 O           3.9082   -2.6436    0.0000 O.3     1  UNL1       -0.4555
      4 O           9.3724    0.3110    0.0000 O.3     1  UNL1       -0.4911
      5 O           9.4729   -1.6780    0.0000 O.3     1  UNL1       -0.5028
      6 O           2.5559    0.3737    0.0000 O.3     1  UNL1       -0.5032
      7 O           9.1932    2.3592    0.0000 O.3     1  UNL1       -0.3917
      8 O           8.7290   -3.1903    0.0000 O.2     1  UNL1       -0.2870
      9 O           7.9174    3.1220    0.0000 O.3     1  UNL1       -0.3917
     10 O           3.7613    2.6292    0.0000 O.3     1  UNL1       -0.4750
     11 O           5.3061    3.4126    0.0000 O.2     1  UNL1       -0.2416
     12 C           6.8361   -0.3408    0.0000 C.ar    1  UNL1       -0.0013
     13 C           5.9701    0.1592    0.0000 C.ar    1  UNL1        0.0015
     14 C           6.8361   -1.3408    0.0000 C.ar    1  UNL1        0.0089
     15 C           5.1041   -0.3408    0.0000 C.ar    1  UNL1        0.0403
     16 C           5.9701   -1.8408    0.0000 C.ar    1  UNL1        0.0368
     17 C           5.1041   -1.3408    0.0000 C.ar    1  UNL1        0.0395
     18 C           7.6548    0.2067    0.0000 C.ar    1  UNL1        0.0087
     19 C           6.0349    1.1419    0.0000 C.ar    1  UNL1        0.0129
     20 C           7.7534   -1.7473    0.0000 C.ar    1  UNL1        0.0752
     21 C           4.2934    0.2504    0.0000 C.ar    1  UNL1        0.1784
     22 C           7.9379    1.1658    0.0000 C.3     1  UNL1        0.0024
     23 C           6.1098   -2.8116    0.0000 C.ar    1  UNL1        0.1367
     24 C           4.1935   -1.7052    0.0000 C.ar    1  UNL1        0.1368
     25 C           8.5348   -0.2353    0.0000 C.ar    1  UNL1        0.1658
     26 C           6.7240    1.8667    0.0000 C.3     1  UNL1        0.0025
     27 C           8.5845   -1.2189    0.0000 C.ar    1  UNL1        0.1704
     28 C           5.2121    1.6831    0.0000 C.ar    1  UNL1        0.2158
     29 C           7.8323   -2.7475    0.0000 C.ar    1  UNL1        0.1938
     30 C           3.3877   -0.1814    0.0000 C.ar    1  UNL1        0.1632
     31 C           6.9901   -3.2929    0.0000 C.ar    1  UNL1        0.0283
     32 C           8.9100    1.4001    0.0000 C.3     1  UNL1        0.0565
     33 C           3.3365   -1.1834    0.0000 C.ar    1  UNL1        0.0260
     34 C           6.9583    2.8388    0.0000 C.3     1  UNL1        0.0565
     35 C           4.4618   -3.4532    0.0000 C.3     1  UNL1        0.2329
     36 C           9.8691    1.1170    0.0000 C.3     1  UNL1       -0.0386
     37 C           4.7598    2.5750    0.0000 C.2     1  UNL1        0.3728
     38 C           6.2336    3.5278    0.0000 C.3     1  UNL1       -0.0386
     39 C          10.2643   -0.1413    0.0000 C.3     1  UNL1        0.0790
     40 H           7.8995    1.7846    0.0000 H       1  UNL1        0.0339
     41 H           7.3218    1.2354    0.0000 H       1  UNL1        0.0339
     42 H           7.0001    1.3116    0.0000 H       1  UNL1        0.0339
     43 H           6.1794    2.1630    0.0000 H       1  UNL1        0.0339
     44 H           7.0132   -3.9124    0.0000 H       1  UNL1        0.0693
     45 H           8.4828    1.8495    0.0000 H       1  UNL1        0.0594
     46 H           2.7884   -1.4733    0.0000 H       1  UNL1        0.0692
     47 H           7.1036    3.4416    0.0000 H       1  UNL1        0.0594
     48 H           3.8848   -3.6800    0.0000 H       1  UNL1        0.1166
     49 H           4.5539   -4.0664    0.0000 H       1  UNL1        0.1166
     50 H           9.6936    0.5224    0.0000 H       1  UNL1        0.0255
     51 H          10.4638    0.9415    0.0000 H       1  UNL1        0.0255
     52 H          10.0447    1.7116    0.0000 H       1  UNL1        0.0255
     53 H           6.6608    3.9772    0.0000 H       1  UNL1        0.0255
     54 H           5.7842    3.9550    0.0000 H       1  UNL1        0.0255
     55 H           5.8064    3.0785    0.0000 H       1  UNL1        0.0255
     56 H           9.9948   -1.3433    0.0000 H       1  UNL1        0.2923
     57 H           2.0000    0.0991    0.0000 H       1  UNL1        0.2923
     58 H           9.7959    2.5045    0.0000 H       1  UNL1        0.2098
     59 H           8.3667    2.6948    0.0000 H       1  UNL1        0.2098
     60 H           9.9839   -0.6943    0.0000 H       1  UNL1        0.0660
     61 H          10.8173   -0.4217    0.0000 H       1  UNL1        0.0660
     62 H          10.5447    0.4117    0.0000 H       1  UNL1        0.0660
     63 H           3.4809    3.1822    0.0000 H       1  UNL1        0.2955
@<TRIPOS>BOND
     1     1    21   ar
     2     1    28   ar
     3     2    23    1
     4     2    35    1
     5     3    24    1
     6     3    35    1
     7     4    25    1
     8     4    39    1
     9     5    27    1
    10     5    56    1
    11     6    30    1
    12     6    57    1
    13     7    32    1
    14     7    58    1
    15     8    29    2
    16     9    34    1
    17     9    59    1
    18    10    37    1
    19    10    63    1
    20    11    37    2
    21    12    13   ar
    22    12    14   ar
    23    12    18   ar
    24    13    15   ar
    25    13    19   ar
    26    14    16   ar
    27    14    20   ar
    28    15    17   ar
    29    15    21   ar
    30    16    17   ar
    31    16    23   ar
    32    17    24   ar
    33    18    22    1
    34    18    25   ar
    35    19    26    1
    36    19    28   ar
    37    20    27   ar
    38    20    29   ar
    39    21    30   ar
    40    22    32    1
    41    22    40    1
    42    22    41    1
    43    23    31   ar
    44    24    33   ar
    45    25    27   ar
    46    26    34    1
    47    26    42    1
    48    26    43    1
    49    28    37    1
    50    29    31   ar
    51    30    33   ar
    52    31    44    1
    53    32    36    1
    54    32    45    1
    55    33    46    1
    56    34    38    1
    57    34    47    1
    58    35    48    1
    59    35    49    1
    60    36    50    1
    61    36    51    1
    62    36    52    1
    63    38    53    1
    64    38    54    1
    65    38    55    1
    66    39    60    1
    67    39    61    1
    68    39    62    1
