@<TRIPOS>MOLECULE
IMPHY017708
 32 32 0 0 0
SMALL
GASTEIGER

@<TRIPOS>ATOM
      1 N           8.9282   -1.0000    0.0000 N.ar    1  UNL1       -0.2599
      2 C           5.4641   -1.0000    0.0000 C.3     1  UNL1       -0.0527
      3 C           4.5981   -0.5000    0.0000 C.3     1  UNL1       -0.0531
      4 C           6.3301   -0.5000    0.0000 C.3     1  UNL1       -0.0476
      5 C           3.7320   -1.0000    0.0000 C.3     1  UNL1       -0.0533
      6 C           7.1962   -1.0000    0.0000 C.3     1  UNL1       -0.0104
      7 C           2.8660   -0.5000    0.0000 C.3     1  UNL1       -0.0559
      8 C           8.0622   -0.5000    0.0000 C.ar    1  UNL1        0.0413
      9 C           2.0000   -1.0000    0.0000 C.3     1  UNL1       -0.0653
     10 C           8.0622    0.5000    0.0000 C.ar    1  UNL1       -0.0404
     11 C           8.9282    1.0000    0.0000 C.ar    1  UNL1       -0.0586
     12 C           9.7942   -0.5000    0.0000 C.ar    1  UNL1        0.0279
     13 C           9.7942    0.5000    0.0000 C.ar    1  UNL1       -0.0436
     14 H           5.0656   -1.4750    0.0000 H       1  UNL1        0.0265
     15 H           5.8626   -1.4750    0.0000 H       1  UNL1        0.0265
     16 H           4.9966   -0.0251    0.0000 H       1  UNL1        0.0265
     17 H           4.1996   -0.0251    0.0000 H       1  UNL1        0.0265
     18 H           6.7287   -0.0251    0.0000 H       1  UNL1        0.0269
     19 H           5.9316   -0.0251    0.0000 H       1  UNL1        0.0269
     20 H           3.3335   -1.4750    0.0000 H       1  UNL1        0.0265
     21 H           4.1306   -1.4750    0.0000 H       1  UNL1        0.0265
     22 H           6.7976   -1.4750    0.0000 H       1  UNL1        0.0328
     23 H           7.5947   -1.4750    0.0000 H       1  UNL1        0.0328
     24 H           3.2646   -0.0251    0.0000 H       1  UNL1        0.0263
     25 H           2.4675   -0.0251    0.0000 H       1  UNL1        0.0263
     26 H           1.6900   -0.4631    0.0000 H       1  UNL1        0.0230
     27 H           1.4631   -1.3100    0.0000 H       1  UNL1        0.0230
     28 H           2.3100   -1.5369    0.0000 H       1  UNL1        0.0230
     29 H           7.5252    0.8100    0.0000 H       1  UNL1        0.0635
     30 H           8.9282    1.6200    0.0000 H       1  UNL1        0.0619
     31 H          10.3312   -0.8100    0.0000 H       1  UNL1        0.0829
     32 H          10.3312    0.8100    0.0000 H       1  UNL1        0.0633
@<TRIPOS>BOND
     1     1     8   ar
     2     1    12   ar
     3     2     3    1
     4     2     4    1
     5     2    14    1
     6     2    15    1
     7     3     5    1
     8     3    16    1
     9     3    17    1
    10     4     6    1
    11     4    18    1
    12     4    19    1
    13     5     7    1
    14     5    20    1
    15     5    21    1
    16     6     8    1
    17     6    22    1
    18     6    23    1
    19     7     9    1
    20     7    24    1
    21     7    25    1
    22     8    10   ar
    23     9    26    1
    24     9    27    1
    25     9    28    1
    26    10    11   ar
    27    10    29    1
    28    11    13   ar
    29    11    30    1
    30    12    13   ar
    31    12    31    1
    32    13    32    1
