@<TRIPOS>MOLECULE
IMPHY004902
 80 84 0 0 0
SMALL
GASTEIGER

@<TRIPOS>ATOM
      1 O           7.7331    0.4700    0.0000 O.3     1  UNL1       -0.3313
      2 O           6.0010   -0.5300    0.0000 O.3     1  UNL1       -0.3461
      3 O           4.2690   -0.5300    0.0000 O.3     1  UNL1       -0.3431
      4 O           6.0010    2.4700    0.0000 O.3     1  UNL1       -0.3865
      5 O           9.4651    0.4700    0.0000 O.3     1  UNL1       -0.4606
      6 O           7.7331    3.4700    0.0000 O.3     1  UNL1       -0.3864
      7 O           9.4651    2.4700    0.0000 O.3     1  UNL1       -0.3829
      8 O           6.0010   -2.5300    0.0000 O.3     1  UNL1       -0.3841
      9 O           4.2690   -3.5300    0.0000 O.3     1  UNL1       -0.3864
     10 O           2.5369   -2.5300    0.0000 O.3     1  UNL1       -0.3866
     11 O          12.9953    0.4805    0.0000 O.3     1  UNL1       -0.4828
     12 O          11.2586    3.5218    0.0000 O.3     1  UNL1       -0.5058
     13 O          13.0069    3.4805    0.0000 O.2     1  UNL1       -0.2917
     14 O          15.5838   -2.0295    0.0000 O.3     1  UNL1       -0.4914
     15 O          17.3196   -1.0362    0.0000 O.3     1  UNL1       -0.4915
     16 C           6.8671    0.9700    0.0000 C.3     1  UNL1        0.1144
     17 C           6.8671    1.9700    0.0000 C.3     1  UNL1        0.1120
     18 C           7.7331    2.4700    0.0000 C.3     1  UNL1        0.1152
     19 C           8.5991    1.9700    0.0000 C.3     1  UNL1        0.1454
     20 C           5.1350   -2.0300    0.0000 C.3     1  UNL1        0.1341
     21 C           5.1350   -1.0300    0.0000 C.3     1  UNL1        0.1879
     22 C           4.2690   -2.5300    0.0000 C.3     1  UNL1        0.1140
     23 C           3.4030   -2.0300    0.0000 C.3     1  UNL1        0.1095
     24 C           8.5991    0.9700    0.0000 C.3     1  UNL1        0.2308
     25 C           6.0010    0.4700    0.0000 C.3     1  UNL1        0.0796
     26 C           3.4030   -1.0300    0.0000 C.3     1  UNL1        0.0873
     27 C           2.5369   -0.5300    0.0000 C.3     1  UNL1       -0.0361
     28 C          10.3312    0.9700    0.0000 C.ar    1  UNL1        0.1310
     29 C          11.2352    0.4526    0.0000 C.ar    1  UNL1        0.0229
     30 C          12.1312    0.9838    0.0000 C.ar    1  UNL1        0.1389
     31 C          10.3352    2.0116    0.0000 C.ar    1  UNL1        0.0226
     32 C          12.1351    1.9838    0.0000 C.ar    1  UNL1        0.1007
     33 C          13.8633    0.9772    0.0000 C.3     1  UNL1        0.1323
     34 C          13.8671    1.9772    0.0000 C.3     1  UNL1        0.0520
     35 C          11.2432    2.5219    0.0000 C.ar    1  UNL1        0.1343
     36 C          13.0030    2.4805    0.0000 C.2     1  UNL1        0.1740
     37 C          14.7274    0.4738    0.0000 C.ar    1  UNL1       -0.0033
     38 C          14.7235   -0.5262    0.0000 C.ar    1  UNL1       -0.0096
     39 C          15.5953    0.9705    0.0000 C.ar    1  UNL1       -0.0514
     40 C          15.5876   -1.0295    0.0000 C.ar    1  UNL1        0.1619
     41 C          16.4594    0.4671    0.0000 C.ar    1  UNL1       -0.0159
     42 C          16.4556   -0.5329    0.0000 C.ar    1  UNL1        0.1615
     43 C          16.4478   -2.5328    0.0000 C.3     1  UNL1        0.0790
     44 C          18.1876   -0.5395    0.0000 C.3     1  UNL1        0.0790
     45 H           6.8671    0.3500    0.0000 H       1  UNL1        0.0647
     46 H           6.3301    1.6600    0.0000 H       1  UNL1        0.0647
     47 H           7.1962    2.7800    0.0000 H       1  UNL1        0.0648
     48 H           8.5991    2.5900    0.0000 H       1  UNL1        0.0683
     49 H           5.1350   -2.6500    0.0000 H       1  UNL1        0.0671
     50 H           5.6720   -1.3400    0.0000 H       1  UNL1        0.0937
     51 H           3.7320   -2.8401    0.0000 H       1  UNL1        0.0648
     52 H           2.8660   -1.7200    0.0000 H       1  UNL1        0.0646
     53 H           8.5991    0.3500    0.0000 H       1  UNL1        0.1084
     54 H           5.7890    1.0526    0.0000 H       1  UNL1        0.0587
     55 H           5.3905    0.3623    0.0000 H       1  UNL1        0.0587
     56 H           3.4030   -0.4100    0.0000 H       1  UNL1        0.0621
     57 H           2.8469    0.0069    0.0000 H       1  UNL1        0.0255
     58 H           2.0000   -0.2200    0.0000 H       1  UNL1        0.0255
     59 H           2.2269   -1.0670    0.0000 H       1  UNL1        0.0255
     60 H           5.4641    2.1599    0.0000 H       1  UNL1        0.2100
     61 H           7.1962    3.7800    0.0000 H       1  UNL1        0.2100
     62 H           9.4651    3.0900    0.0000 H       1  UNL1        0.2102
     63 H           6.5380   -2.2200    0.0000 H       1  UNL1        0.2101
     64 H           3.7320   -3.8400    0.0000 H       1  UNL1        0.2100
     65 H           2.0000   -2.2200    0.0000 H       1  UNL1        0.2100
     66 H          11.2400   -0.1674    0.0000 H       1  UNL1        0.0691
     67 H           9.8006    2.3257    0.0000 H       1  UNL1        0.0691
     68 H          14.4014    1.2851    0.0000 H       1  UNL1        0.0789
     69 H          14.4773    1.8671    0.0000 H       1  UNL1        0.0385
     70 H          14.0814    2.5589    0.0000 H       1  UNL1        0.0385
     71 H          14.1854   -0.8341    0.0000 H       1  UNL1        0.0659
     72 H          15.5977    1.5905    0.0000 H       1  UNL1        0.0623
     73 H          10.7265    3.8400    0.0000 H       1  UNL1        0.2922
     74 H          16.9975    0.7751    0.0000 H       1  UNL1        0.0655
     75 H          16.1358   -3.0686    0.0000 H       1  UNL1        0.0660
     76 H          16.9836   -2.8449    0.0000 H       1  UNL1        0.0660
     77 H          16.7599   -1.9971    0.0000 H       1  UNL1        0.0660
     78 H          18.4955   -1.0776    0.0000 H       1  UNL1        0.0660
     79 H          18.7257   -0.2316    0.0000 H       1  UNL1        0.0660
     80 H          17.8797   -0.0014    0.0000 H       1  UNL1        0.0660
@<TRIPOS>BOND
     1     1    16    1
     2     1    24    1
     3    21     2    1
     4     2    25    1
     5     3    21    1
     6     3    26    1
     7    17     4    1
     8     4    60    1
     9    24     5    1
    10     5    28    1
    11    18     6    1
    12     6    61    1
    13    19     7    1
    14     7    62    1
    15    20     8    1
    16     8    63    1
    17    22     9    1
    18     9    64    1
    19    23    10    1
    20    10    65    1
    21    11    30    1
    22    11    33    1
    23    12    35    1
    24    12    73    1
    25    13    36    2
    26    14    40    1
    27    14    43    1
    28    15    42    1
    29    15    44    1
    30    16    17    1
    31    16    25    1
    32    16    45    1
    33    17    18    1
    34    17    46    1
    35    18    19    1
    36    18    47    1
    37    19    24    1
    38    19    48    1
    39    20    21    1
    40    20    22    1
    41    20    49    1
    42    21    50    1
    43    22    23    1
    44    22    51    1
    45    23    26    1
    46    23    52    1
    47    24    53    1
    48    25    54    1
    49    25    55    1
    50    26    27    1
    51    26    56    1
    52    27    57    1
    53    27    58    1
    54    27    59    1
    55    28    29   ar
    56    28    31   ar
    57    29    30   ar
    58    29    66    1
    59    30    32   ar
    60    31    35   ar
    61    31    67    1
    62    32    35   ar
    63    32    36    1
    64    33    34    1
    65    33    37    1
    66    33    68    1
    67    34    36    1
    68    34    69    1
    69    34    70    1
    70    37    38   ar
    71    37    39   ar
    72    38    40   ar
    73    38    71    1
    74    39    41   ar
    75    39    72    1
    76    40    42   ar
    77    41    42   ar
    78    41    74    1
    79    43    75    1
    80    43    76    1
    81    43    77    1
    82    44    78    1
    83    44    79    1
    84    44    80    1
