@<TRIPOS>MOLECULE
IMPHY008690
 43 43 0 0 0
SMALL
GASTEIGER

@<TRIPOS>ATOM
      1 O           5.4641    2.4050    0.0000 O.2     1  UNL1       -0.2970
      2 O           4.5981    0.9050    0.0000 O.2     1  UNL1       -0.2922
      3 O           2.8660   -4.0950    0.0000 O.3     1  UNL1       -0.4914
      4 O           4.5981   -5.0950    0.0000 O.3     1  UNL1       -0.5033
      5 C           7.1962    3.4050    0.0000 C.3     1  UNL1       -0.0464
      6 C           8.0622    3.9050    0.0000 C.3     1  UNL1       -0.0529
      7 C           7.1962    2.4050    0.0000 C.3     1  UNL1        0.0063
      8 C           8.0622    4.9050    0.0000 C.3     1  UNL1       -0.0559
      9 C           6.3301    1.9050    0.0000 C.2     1  UNL1        0.1408
     10 C           6.3301    0.9050    0.0000 C.3     1  UNL1        0.0683
     11 C           8.9282    5.4050    0.0000 C.3     1  UNL1       -0.0653
     12 C           5.4641    0.4050    0.0000 C.2     1  UNL1        0.1632
     13 C           5.4641   -0.5950    0.0000 C.2     1  UNL1       -0.0182
     14 C           4.5981   -2.0950    0.0000 C.ar    1  UNL1       -0.0212
     15 C           4.5981   -1.0950    0.0000 C.2     1  UNL1       -0.0512
     16 C           3.7320   -2.5950    0.0000 C.ar    1  UNL1       -0.0092
     17 C           5.4641   -2.5950    0.0000 C.ar    1  UNL1       -0.0509
     18 C           3.7320   -3.5950    0.0000 C.ar    1  UNL1        0.1618
     19 C           4.5981   -4.0950    0.0000 C.ar    1  UNL1        0.1585
     20 C           5.4641   -3.5950    0.0000 C.ar    1  UNL1       -0.0160
     21 C           2.0000   -3.5950    0.0000 C.3     1  UNL1        0.0790
     22 H           6.9841    3.9876    0.0000 H       1  UNL1        0.0269
     23 H           6.5856    3.2973    0.0000 H       1  UNL1        0.0269
     24 H           8.2742    3.3224    0.0000 H       1  UNL1        0.0265
     25 H           8.6728    4.0127    0.0000 H       1  UNL1        0.0265
     26 H           7.4082    1.8224    0.0000 H       1  UNL1        0.0342
     27 H           7.8067    2.5127    0.0000 H       1  UNL1        0.0342
     28 H           7.8501    5.4876    0.0000 H       1  UNL1        0.0263
     29 H           7.4516    4.7973    0.0000 H       1  UNL1        0.0263
     30 H           6.5422    0.3224    0.0000 H       1  UNL1        0.0422
     31 H           6.9407    1.0127    0.0000 H       1  UNL1        0.0422
     32 H           9.2382    4.8681    0.0000 H       1  UNL1        0.0230
     33 H           9.4651    5.7150    0.0000 H       1  UNL1        0.0230
     34 H           8.6182    5.9419    0.0000 H       1  UNL1        0.0230
     35 H           6.0010   -0.9050    0.0000 H       1  UNL1        0.0653
     36 H           4.0611   -0.7850    0.0000 H       1  UNL1        0.0625
     37 H           3.1951   -2.2850    0.0000 H       1  UNL1        0.0661
     38 H           6.0010   -2.2850    0.0000 H       1  UNL1        0.0625
     39 H           6.0010   -3.9050    0.0000 H       1  UNL1        0.0655
     40 H           5.1350   -5.4050    0.0000 H       1  UNL1        0.2923
     41 H           2.3100   -3.0581    0.0000 H       1  UNL1        0.0660
     42 H           1.4631   -3.2850    0.0000 H       1  UNL1        0.0660
     43 H           1.6900   -4.1319    0.0000 H       1  UNL1        0.0660
@<TRIPOS>BOND
     1     1     9    2
     2     2    12    2
     3     3    18    1
     4     3    21    1
     5     4    19    1
     6     4    40    1
     7     5     6    1
     8     5     7    1
     9     5    22    1
    10     5    23    1
    11     6     8    1
    12     6    24    1
    13     6    25    1
    14     7     9    1
    15     7    26    1
    16     7    27    1
    17     8    11    1
    18     8    28    1
    19     8    29    1
    20     9    10    1
    21    10    12    1
    22    10    30    1
    23    10    31    1
    24    11    32    1
    25    11    33    1
    26    11    34    1
    27    12    13    1
    28    13    15    2
    29    13    35    1
    30    14    15    1
    31    14    16   ar
    32    14    17   ar
    33    15    36    1
    34    16    18   ar
    35    16    37    1
    36    17    20   ar
    37    17    38    1
    38    18    19   ar
    39    19    20   ar
    40    20    39    1
    41    21    41    1
    42    21    42    1
    43    21    43    1
