@<TRIPOS>MOLECULE
IMPHY012694
 70 74 0 0 0
SMALL
GASTEIGER

@<TRIPOS>ATOM
      1 O          10.7664    2.2554    0.0000 O.3     1  UNL1       -0.4914
      2 O          12.5403    1.2313    0.0000 O.3     1  UNL1       -0.4914
      3 O           2.8698    0.7181    0.0000 O.3     1  UNL1       -0.4914
      4 O           2.8544    2.7180    0.0000 O.3     1  UNL1       -0.5033
      5 N           9.0223   -1.8138    0.0000 N.3     1  UNL1       -0.2948
      6 N           7.2641    1.2311    0.0000 N.2     1  UNL1       -0.2873
      7 C           7.2223   -0.7930    0.0000 C.3     1  UNL1       -0.0299
      8 C           7.2223   -1.8346    0.0000 C.3     1  UNL1       -0.0252
      9 C           9.0223   -0.8138    0.0000 C.3     1  UNL1        0.0363
     10 C           8.1283   -0.2792    0.0000 C.3     1  UNL1       -0.0297
     11 C           8.1283   -2.3485    0.0000 C.3     1  UNL1        0.0026
     12 C           9.8883   -2.3138    0.0000 C.3     1  UNL1        0.0035
     13 C           6.3582   -0.2897    0.0000 C.3     1  UNL1       -0.0071
     14 C           9.8883   -0.3138    0.0000 C.ar    1  UNL1       -0.0234
     15 C           6.3582   -2.3380    0.0000 C.3     1  UNL1       -0.0516
     16 C          10.7543   -1.8138    0.0000 C.3     1  UNL1       -0.0144
     17 C          10.7543   -0.8138    0.0000 C.ar    1  UNL1       -0.0378
     18 C           6.3620    0.7103    0.0000 C.2     1  UNL1        0.0436
     19 C           9.8722    0.7277    0.0000 C.ar    1  UNL1       -0.0114
     20 C           6.3620   -3.3380    0.0000 C.3     1  UNL1       -0.0650
     21 C          11.6643   -0.3070    0.0000 C.ar    1  UNL1       -0.0128
     22 C           5.4640    1.2381    0.0000 C.ar    1  UNL1        0.0027
     23 C          10.7703    1.2554    0.0000 C.ar    1  UNL1        0.1618
     24 C          11.6724    0.7346    0.0000 C.ar    1  UNL1        0.1618
     25 C           5.4563    2.2380    0.0000 C.ar    1  UNL1       -0.0331
     26 C           7.2561    2.2727    0.0000 C.3     1  UNL1        0.0440
     27 C           6.3461    2.7796    0.0000 C.3     1  UNL1       -0.0074
     28 C           4.6018    0.7314    0.0000 C.ar    1  UNL1       -0.0072
     29 C           4.5864    2.7313    0.0000 C.ar    1  UNL1       -0.0127
     30 C           3.7320    1.2247    0.0000 C.ar    1  UNL1        0.1619
     31 C           3.7243    2.2247    0.0000 C.ar    1  UNL1        0.1587
     32 C          11.6305    2.7588    0.0000 C.3     1  UNL1        0.0790
     33 C          13.4044    0.7279    0.0000 C.3     1  UNL1        0.0790
     34 C           2.0000    1.2114    0.0000 C.3     1  UNL1        0.0790
     35 H           7.2259   -0.1730    0.0000 H       1  UNL1        0.0308
     36 H           7.2259   -2.4546    0.0000 H       1  UNL1        0.0316
     37 H           9.0271   -0.1938    0.0000 H       1  UNL1        0.0512
     38 H           8.5329    0.1906    0.0000 H       1  UNL1        0.0286
     39 H           7.7347    0.1998    0.0000 H       1  UNL1        0.0286
     40 H           7.7347   -2.8275    0.0000 H       1  UNL1        0.0429
     41 H           8.5329   -2.8183    0.0000 H       1  UNL1        0.0429
     42 H           9.4898   -2.7888    0.0000 H       1  UNL1        0.0430
     43 H          10.2868   -2.7888    0.0000 H       1  UNL1        0.0430
     44 H           5.7480   -0.1797    0.0000 H       1  UNL1        0.0331
     45 H           6.1439   -0.8715    0.0000 H       1  UNL1        0.0331
     46 H           6.1439   -1.7562    0.0000 H       1  UNL1        0.0266
     47 H           5.7480   -2.4480    0.0000 H       1  UNL1        0.0266
     48 H          10.9664   -2.3964    0.0000 H       1  UNL1        0.0326
     49 H          11.3649   -1.7062    0.0000 H       1  UNL1        0.0326
     50 H           9.3318    1.0314    0.0000 H       1  UNL1        0.0659
     51 H           5.7420   -3.3404    0.0000 H       1  UNL1        0.0230
     52 H           6.3644   -3.9580    0.0000 H       1  UNL1        0.0230
     53 H           6.9820   -3.3356    0.0000 H       1  UNL1        0.0230
     54 H          12.1976   -0.6232    0.0000 H       1  UNL1        0.0658
     55 H           7.8677    2.1714    0.0000 H       1  UNL1        0.0511
     56 H           7.4606    2.8580    0.0000 H       1  UNL1        0.0511
     57 H           6.7360    3.2616    0.0000 H       1  UNL1        0.0331
     58 H           5.9379    3.2462    0.0000 H       1  UNL1        0.0331
     59 H           4.6066    0.1114    0.0000 H       1  UNL1        0.0662
     60 H           4.5817    3.3513    0.0000 H       1  UNL1        0.0658
     61 H          11.9426    2.2230    0.0000 H       1  UNL1        0.0660
     62 H          12.1663    3.0708    0.0000 H       1  UNL1        0.0660
     63 H          11.3185    3.2945    0.0000 H       1  UNL1        0.0660
     64 H          13.0923    0.1922    0.0000 H       1  UNL1        0.0660
     65 H          13.9401    0.4159    0.0000 H       1  UNL1        0.0660
     66 H          13.7165    1.2637    0.0000 H       1  UNL1        0.0660
     67 H           2.8497    3.3380    0.0000 H       1  UNL1        0.2923
     68 H           2.3058    1.7507    0.0000 H       1  UNL1        0.0660
     69 H           1.4607    1.5172    0.0000 H       1  UNL1        0.0660
     70 H           1.6942    0.6721    0.0000 H       1  UNL1        0.0660
@<TRIPOS>BOND
     1     1    23    1
     2     1    32    1
     3     2    24    1
     4     2    33    1
     5     3    30    1
     6     3    34    1
     7     4    31    1
     8     4    67    1
     9     5     9    1
    10     5    11    1
    11     5    12    1
    12     6    18    2
    13     6    26    1
    14     7     8    1
    15     7    10    1
    16     7    13    1
    17     7    35    1
    18     8    11    1
    19     8    15    1
    20     8    36    1
    21     9    10    1
    22     9    14    1
    23     9    37    1
    24    10    38    1
    25    10    39    1
    26    11    40    1
    27    11    41    1
    28    12    16    1
    29    12    42    1
    30    12    43    1
    31    13    18    1
    32    13    44    1
    33    13    45    1
    34    14    17   ar
    35    14    19   ar
    36    15    20    1
    37    15    46    1
    38    15    47    1
    39    16    17    1
    40    16    48    1
    41    16    49    1
    42    17    21   ar
    43    18    22    1
    44    19    23   ar
    45    19    50    1
    46    20    51    1
    47    20    52    1
    48    20    53    1
    49    21    24   ar
    50    21    54    1
    51    22    25   ar
    52    22    28   ar
    53    23    24   ar
    54    25    27    1
    55    25    29   ar
    56    26    27    1
    57    26    55    1
    58    26    56    1
    59    27    57    1
    60    27    58    1
    61    28    30   ar
    62    28    59    1
    63    29    31   ar
    64    29    60    1
    65    30    31   ar
    66    32    61    1
    67    32    62    1
    68    32    63    1
    69    33    64    1
    70    33    65    1
    71    33    66    1
    72    34    68    1
    73    34    69    1
    74    34    70    1
