@<TRIPOS>MOLECULE
IMPHY010651
 27 29 0 0 0
SMALL
GASTEIGER

@<TRIPOS>ATOM
      1 O           3.7198   -8.2845    0.0000 O.3     1  UNL1       -0.3256
      2 C           4.3769   -7.1580    0.0000 C.3     1  UNL1        0.2720
      3 C           5.6912   -7.1580    0.0000 C.3     1  UNL1        0.2406
      4 C           6.3483   -8.2845    0.0000 C.3     1  UNL1        0.2198
      5 C           5.6912   -9.4462    0.0000 C.3     1  UNL1        0.2144
      6 C           4.3769   -9.4462    0.0000 C.3     1  UNL1        0.1835
      7 O           3.7198   -5.9963    0.0000 O.3     1  UNL1       -0.2935
      8 C           3.7081   -4.6234    0.0000 C.3     1  UNL1        0.2877
      9 O           4.8346   -3.9662    0.0000 O.2     1  UNL1       -0.4498
     10 C           4.8346   -2.6520    0.0000 C.2     1  UNL1        0.1736
     11 C           3.7081   -1.9949    0.0000 C.2     1  UNL1        0.0527
     12 C           2.5581   -2.6520    0.0000 C.3     1  UNL1        0.0107
     13 C           2.5581   -3.9662    0.0000 C.3     1  UNL1        0.0721
     14 C           1.3025   -4.3769    0.0000 C.3     1  UNL1        0.1289
     15 C           0.5163   -3.3091    0.0000 C.3     1  UNL1        0.0303
     16 C           1.3025   -2.2413    0.0000 C.3     1  UNL1        0.0028
     17 O           6.3483   -5.9963    0.0000 O.3     1  UNL1       -0.2149
     18 O           7.6861   -8.2845    0.0000 O.3     1  UNL1       -0.2174
     19 O           6.3483  -10.5727    0.0000 O.3     1  UNL1       -0.2176
     20 C           3.7198  -10.5727    0.0000 C.3     1  UNL1        0.2142
     21 O           4.3769  -11.7344    0.0000 O.3     1  UNL1       -0.2176
     22 C           3.7081   -0.6689    0.0000 C.2     1  UNL1        0.2327
     23 O           4.8346    0.0000    0.0000 O.2     1  UNL1       -0.2834
     24 O           0.0000   -5.0458    0.0000 O.3     1  UNL1       -0.2258
     25 C           1.3260   -5.7616    0.0000 C.3     1  UNL1        0.0328
     26 H           2.5698   -1.3260    0.0000 H       1  UNL1        0.0363
     27 H           2.5698   -5.3157    0.0000 H       1  UNL1        0.0402
@<TRIPOS>BOND
     1     1     2    1
     2     1     6    1
     3     2     7    1
     4     2     3    1
     5     3     4    1
     6     3    17    1
     7     4     5    1
     8     4    18    1
     9     5     6    1
    10     5    19    1
    11     6    20    1
    12     8     7    1
    13     8     9    1
    14     8    13    1
    15     9    10    1
    16    10    11    2
    17    11    12    1
    18    11    22    1
    19    12    16    1
    20    12    13    1
    21    12    26    1
    22    13    14    1
    23    13    27    1
    24    14    15    1
    25    14    25    1
    26    14    24    1
    27    15    16    1
    28    20    21    1
    29    22    23    2
