@<TRIPOS>MOLECULE
IMPHY003455
 58 57 0 0 0
SMALL
GASTEIGER

@<TRIPOS>ATOM
      1 S1          6.8671    2.4050    0.0000 S.3     1  <1>        -0.0907
      2 S2          6.8671    1.4050    0.0000 S.3     1  <1>        -0.0907
      3 O1          9.4651    2.9050    0.0000 O.2     1  <1>        -0.2758
      4 O2          6.0010   -2.0950    0.0000 O.2     1  <1>        -0.2758
      5 O3          6.0010    3.9050    0.0000 O.3     1  <1>        -0.4793
      6 O4          6.8671   -1.5950    0.0000 O.3     1  <1>        -0.4793
      7 O5         13.7953    4.4050    0.0000 O.3     1  <1>        -0.4795
      8 O6          2.5369   -5.0950    0.0000 O.3     1  <1>        -0.4795
      9 O7          6.8671    5.4050    0.0000 O.2     1  <1>        -0.2489
     10 O8          7.7331   -0.0950    0.0000 O.2     1  <1>        -0.2489
     11 O9         12.9292    2.9050    0.0000 O.2     1  <1>        -0.2493
     12 O10         4.2690   -5.0950    0.0000 O.2     1  <1>        -0.2493
     13 N1          8.5991    4.4050    0.0000 N.am    1  <1>        -0.3017
     14 N2          5.1350   -0.5950    0.0000 N.am    1  <1>        -0.3017
     15 N3         12.0632    5.4050    0.0000 N.3     1  <1>        -0.3184
     16 N4          2.5369   -3.0950    0.0000 N.3     1  <1>        -0.3184
     17 C1         11.1972    3.9050    0.0000 C.3     1  <1>        -0.0191
     18 C2          4.2690   -3.0950    0.0000 C.3     1  <1>        -0.0191
     19 C3         10.3312    4.4050    0.0000 C.3     1  <1>         0.0259
     20 C4          4.2690   -2.0950    0.0000 C.3     1  <1>         0.0259
     21 C5         12.0632    4.4050    0.0000 C.3     1  <1>         0.1037
     22 C6          3.4030   -3.5950    0.0000 C.3     1  <1>         0.1037
     23 C7          7.7331    3.9050    0.0000 C.3     1  <1>         0.1300
     24 C8          6.0010   -0.0950    0.0000 C.3     1  <1>         0.1300
     25 C9          9.4651    3.9050    0.0000 C.2     1  <1>         0.2137
     26 C10         5.1350   -1.5950    0.0000 C.2     1  <1>         0.2137
     27 C11         7.7331    2.9050    0.0000 C.3     1  <1>         0.0327
     28 C12         6.0010    0.9050    0.0000 C.3     1  <1>         0.0327
     29 C13         6.8671    4.4050    0.0000 C.2     1  <1>         0.3261
     30 C14         6.8671   -0.5950    0.0000 C.2     1  <1>         0.3261
     31 C15        12.9292    3.9050    0.0000 C.2     1  <1>         0.3217
     32 C16         3.4030   -4.5950    0.0000 C.2     1  <1>         0.3217
     33 H1          4.4810   -3.6776    0.0000 H       1  <1>         0.0290
     34 H2          4.8796   -2.9873    0.0000 H       1  <1>         0.0290
     35 H3         10.7987    3.4300    0.0000 H       1  <1>         0.0290
     36 H4         11.5957    3.4300    0.0000 H       1  <1>         0.0290
     37 H5          4.0569   -1.5124    0.0000 H       1  <1>         0.0359
     38 H6          3.6584   -2.2027    0.0000 H       1  <1>         0.0359
     39 H7         10.7297    4.8800    0.0000 H       1  <1>         0.0359
     40 H8          9.9326    4.8800    0.0000 H       1  <1>         0.0359
     41 H9          3.4030   -2.9750    0.0000 H       1  <1>         0.0574
     42 H10        12.6002    4.7150    0.0000 H       1  <1>         0.0574
     43 H11         5.4641    0.2150    0.0000 H       1  <1>         0.0623
     44 H12         8.2700    3.5950    0.0000 H       1  <1>         0.0623
     45 H13         8.5991    5.0250    0.0000 H       1  <1>         0.1495
     46 H14         4.5981   -0.2850    0.0000 H       1  <1>         0.1495
     47 H15         5.7890    1.4876    0.0000 H       1  <1>         0.0408
     48 H16         5.3905    0.7973    0.0000 H       1  <1>         0.0408
     49 H17         7.9451    2.3224    0.0000 H       1  <1>         0.0408
     50 H18         8.3437    3.0127    0.0000 H       1  <1>         0.0408
     51 H19        12.6002    5.7150    0.0000 H       1  <1>         0.1190
     52 H20        11.5263    5.7150    0.0000 H       1  <1>         0.1190
     53 H21         2.0000   -3.4050    0.0000 H       1  <1>         0.1190
     54 H22         2.5369   -2.4750    0.0000 H       1  <1>         0.1190
     55 H23         5.4641    4.2150    0.0000 H       1  <1>         0.2951
     56 H24         7.4040   -1.9050    0.0000 H       1  <1>         0.2951
     57 H25        14.3322    4.0950    0.0000 H       1  <1>         0.2951
     58 H26         2.5369   -5.7150    0.0000 H       1  <1>         0.2951
@<TRIPOS>BOND
     1     1     2    1
     2     1    27    1
     3     2    28    1
     4     3    25    2
     5     4    26    2
     6     5    29    1
     7     5    55    1
     8     6    30    1
     9     6    56    1
    10     7    31    1
    11     7    57    1
    12     8    32    1
    13     8    58    1
    14     9    29    2
    15    10    30    2
    16    11    31    2
    17    12    32    2
    18    13    23    1
    19    13    25   am
    20    13    45    1
    21    14    24    1
    22    14    26   am
    23    14    46    1
    24    15    21    1
    25    15    51    1
    26    15    52    1
    27    16    22    1
    28    16    53    1
    29    16    54    1
    30    17    19    1
    31    17    21    1
    32    17    35    1
    33    17    36    1
    34    18    20    1
    35    18    22    1
    36    18    33    1
    37    18    34    1
    38    19    25    1
    39    19    39    1
    40    19    40    1
    41    20    26    1
    42    20    37    1
    43    20    38    1
    44    21    31    1
    45    21    42    1
    46    22    32    1
    47    22    41    1
    48    23    27    1
    49    23    29    1
    50    23    44    1
    51    24    28    1
    52    24    30    1
    53    24    43    1
    54    27    49    1
    55    27    50    1
    56    28    47    1
    57    28    48    1
