@<TRIPOS>MOLECULE
IMPHY009532
 15 15 0 0 0
SMALL
GASTEIGER

@<TRIPOS>ATOM
      1 O           4.5981   -1.5600    0.0000 O.2     1  UNL1       -0.4945
      2 O           2.0000   -0.0600    0.0000 O.2     1  UNL1       -0.2873
      3 O           2.8660    1.4400    0.0000 O.2     1  UNL1       -0.5138
      4 C           4.5981   -0.5600    0.0000 C.3     1  UNL1        0.1202
      5 C           3.7320   -0.0600    0.0000 C.2     1  UNL1        0.0702
      6 C           2.8660   -0.5600    0.0000 C.2     1  UNL1        0.1911
      7 C           2.8660   -1.5600    0.0000 C.2     1  UNL1        0.0198
      8 C           3.7320   -2.0600    0.0000 C.2     1  UNL1        0.0886
      9 C           3.7320    0.9400    0.0000 C.2     1  UNL1        0.0909
     10 H           5.2087   -0.6677    0.0000 H       1  UNL1        0.0750
     11 H           4.8101    0.0226    0.0000 H       1  UNL1        0.0750
     12 H           2.3291   -1.8700    0.0000 H       1  UNL1        0.0686
     13 H           3.7320   -2.6800    0.0000 H       1  UNL1        0.1024
     14 H           4.2690    1.2500    0.0000 H       1  UNL1        0.1026
     15 H           2.8660    2.0600    0.0000 H       1  UNL1        0.2912
@<TRIPOS>BOND
     1     1     4    1
     2     1     8    1
     3     2     6    2
     4     3     9    1
     5     3    15    1
     6     4     5    1
     7     4    10    1
     8     4    11    1
     9     5     6    1
    10     5     9    2
    11     6     7    1
    12     7     8    2
    13     7    12    1
    14     8    13    1
    15     9    14    1
