@<TRIPOS>MOLECULE
IMPHY016607
 28 29 0 0 0
SMALL
GASTEIGER

@<TRIPOS>ATOM
      1 C           3.7320   -0.5000    0.0000 C.3     1  UNL1       -0.0382
      2 C           3.7320    0.5000    0.0000 C.3     1  UNL1       -0.0382
      3 C           2.8660   -1.0000    0.0000 C.3     1  UNL1       -0.0500
      4 C           4.6260   -1.0347    0.0000 C.3     1  UNL1       -0.0500
      5 C           2.8660    1.0000    0.0000 C.3     1  UNL1       -0.0500
      6 C           4.6260    1.0347    0.0000 C.3     1  UNL1       -0.0500
      7 C           2.0000   -0.5000    0.0000 C.3     1  UNL1       -0.0528
      8 C           5.5321   -0.5208    0.0000 C.3     1  UNL1       -0.0528
      9 C           2.0000    0.5000    0.0000 C.3     1  UNL1       -0.0528
     10 C           5.5321    0.5208    0.0000 C.3     1  UNL1       -0.0528
     11 H           3.7273   -1.1200    0.0000 H       1  UNL1        0.0303
     12 H           3.7273    1.1200    0.0000 H       1  UNL1        0.0303
     13 H           2.4675   -1.4750    0.0000 H       1  UNL1        0.0268
     14 H           3.2646   -1.4750    0.0000 H       1  UNL1        0.0268
     15 H           4.2214   -1.5044    0.0000 H       1  UNL1        0.0268
     16 H           5.0196   -1.5137    0.0000 H       1  UNL1        0.0268
     17 H           3.2646    1.4750    0.0000 H       1  UNL1        0.0268
     18 H           2.4675    1.4750    0.0000 H       1  UNL1        0.0268
     19 H           5.0196    1.5137    0.0000 H       1  UNL1        0.0268
     20 H           4.2214    1.5044    0.0000 H       1  UNL1        0.0268
     21 H           1.3894   -0.3923    0.0000 H       1  UNL1        0.0265
     22 H           1.7880   -1.0826    0.0000 H       1  UNL1        0.0265
     23 H           5.7411   -1.1045    0.0000 H       1  UNL1        0.0265
     24 H           6.1429   -0.4147    0.0000 H       1  UNL1        0.0265
     25 H           1.7880    1.0826    0.0000 H       1  UNL1        0.0265
     26 H           1.3894    0.3923    0.0000 H       1  UNL1        0.0265
     27 H           6.1429    0.4147    0.0000 H       1  UNL1        0.0265
     28 H           5.7411    1.1045    0.0000 H       1  UNL1        0.0265
@<TRIPOS>BOND
     1     1     2    1
     2     1     3    1
     3     1     4    1
     4     1    11    1
     5     2     5    1
     6     2     6    1
     7     2    12    1
     8     3     7    1
     9     3    13    1
    10     3    14    1
    11     4     8    1
    12     4    15    1
    13     4    16    1
    14     5     9    1
    15     5    17    1
    16     5    18    1
    17     6    10    1
    18     6    19    1
    19     6    20    1
    20     7     9    1
    21     7    21    1
    22     7    22    1
    23     8    10    1
    24     8    23    1
    25     8    24    1
    26     9    25    1
    27     9    26    1
    28    10    27    1
    29    10    28    1
