@<TRIPOS>MOLECULE
IMPHY012069
 27 27 0 0 0
SMALL
GASTEIGER

@<TRIPOS>ATOM
      1 O           4.5981    2.0000    0.0000 O.3     1  UNL1       -0.4914
      2 O           2.8660    1.0000    0.0000 O.3     1  UNL1       -0.4915
      3 C           5.4641   -0.5000    0.0000 C.ar    1  UNL1       -0.0216
      4 C           4.5981    1.0000    0.0000 C.ar    1  UNL1        0.1620
      5 C           3.7320    0.5000    0.0000 C.ar    1  UNL1        0.1615
      6 C           5.4641    0.5000    0.0000 C.ar    1  UNL1       -0.0092
      7 C           4.5981   -1.0000    0.0000 C.ar    1  UNL1       -0.0509
      8 C           3.7320   -0.5000    0.0000 C.ar    1  UNL1       -0.0157
      9 C           6.3301   -1.0000    0.0000 C.2     1  UNL1       -0.0587
     10 C           6.3301   -2.0000    0.0000 C.2     1  UNL1       -0.0865
     11 C           5.4641    2.5000    0.0000 C.3     1  UNL1        0.0790
     12 C           7.1962   -2.5000    0.0000 C.3     1  UNL1       -0.0465
     13 C           2.0000    0.5000    0.0000 C.3     1  UNL1        0.0790
     14 H           6.0010    0.8100    0.0000 H       1  UNL1        0.0661
     15 H           4.5981   -1.6200    0.0000 H       1  UNL1        0.0625
     16 H           3.1951   -0.8100    0.0000 H       1  UNL1        0.0655
     17 H           6.8671   -0.6900    0.0000 H       1  UNL1        0.0620
     18 H           5.7932   -2.3100    0.0000 H       1  UNL1        0.0569
     19 H           5.7741    1.9631    0.0000 H       1  UNL1        0.0660
     20 H           6.0010    2.8100    0.0000 H       1  UNL1        0.0660
     21 H           5.1541    3.0369    0.0000 H       1  UNL1        0.0660
     22 H           6.8862   -3.0369    0.0000 H       1  UNL1        0.0272
     23 H           7.7331   -2.8100    0.0000 H       1  UNL1        0.0272
     24 H           7.5062   -1.9631    0.0000 H       1  UNL1        0.0272
     25 H           1.6900    1.0369    0.0000 H       1  UNL1        0.0660
     26 H           1.4631    0.1900    0.0000 H       1  UNL1        0.0660
     27 H           2.3100   -0.0369    0.0000 H       1  UNL1        0.0660
@<TRIPOS>BOND
     1     1     4    1
     2     1    11    1
     3     2     5    1
     4     2    13    1
     5     3     6   ar
     6     3     7   ar
     7     3     9    1
     8     4     5   ar
     9     4     6   ar
    10     5     8   ar
    11     6    14    1
    12     7     8   ar
    13     7    15    1
    14     8    16    1
    15     9    10    2
    16     9    17    1
    17    10    12    1
    18    10    18    1
    19    11    19    1
    20    11    20    1
    21    11    21    1
    22    12    22    1
    23    12    23    1
    24    12    24    1
    25    13    25    1
    26    13    26    1
    27    13    27    1
