@<TRIPOS>MOLECULE
IMPHY002933
 42 46 0 0 0
SMALL
GASTEIGER

@<TRIPOS>ATOM
      1 O           4.6140    4.1410    0.0000 O.3     1  UNL1       -0.4575
      2 O           6.5080    2.5670    0.0000 O.3     1  UNL1       -0.3732
      3 O           2.0000    2.5718    0.0000 O.2     1  UNL1       -0.2672
      4 O           6.3840    4.1168    0.0000 O.2     1  UNL1       -0.2472
      5 N           2.8660    1.0718    0.0000 N.ar    1  UNL1       -0.3019
      6 N           4.1436   -1.2288    0.0000 N.ar    1  UNL1       -0.2449
      7 C           5.5081    2.5786    0.0000 C.3     1  UNL1        0.1877
      8 C           4.5981    2.0718    0.0000 C.ar    1  UNL1        0.0082
      9 C           3.7320    0.5718    0.0000 C.ar    1  UNL1        0.0713
     10 C           3.7320    2.5718    0.0000 C.ar    1  UNL1        0.0606
     11 C           2.1290    0.4047    0.0000 C.3     1  UNL1        0.0539
     12 C           4.5981    1.0718    0.0000 C.ar    1  UNL1       -0.0290
     13 C           2.5341   -0.5031    0.0000 C.ar    1  UNL1        0.0003
     14 C           3.5228   -0.4001    0.0000 C.ar    1  UNL1        0.0929
     15 C           2.8660    2.0718    0.0000 C.ar    1  UNL1        0.2589
     16 C           5.9980    1.7068    0.0000 C.3     1  UNL1       -0.0121
     17 C           3.7160    3.6133    0.0000 C.3     1  UNL1        0.1230
     18 C           5.5161    3.6202    0.0000 C.2     1  UNL1        0.3441
     19 C           2.0976   -1.4421    0.0000 C.ar    1  UNL1       -0.0456
     20 C           5.4880    0.8467    0.0000 C.3     1  UNL1       -0.0618
     21 C           2.6990   -2.2850    0.0000 C.ar    1  UNL1        0.0007
     22 C           3.7289   -2.1776    0.0000 C.ar    1  UNL1        0.0717
     23 C           2.2444   -3.2630    0.0000 C.ar    1  UNL1       -0.0526
     24 C           4.3755   -3.0409    0.0000 C.ar    1  UNL1       -0.0357
     25 C           2.8708   -4.1410    0.0000 C.ar    1  UNL1       -0.0611
     26 C           3.9436   -4.0292    0.0000 C.ar    1  UNL1       -0.0597
     27 H           1.7636    0.9055    0.0000 H       1  UNL1        0.0543
     28 H           1.5925    0.0939    0.0000 H       1  UNL1        0.0543
     29 H           5.1350    0.7618    0.0000 H       1  UNL1        0.0643
     30 H           6.4683    1.3028    0.0000 H       1  UNL1        0.0299
     31 H           6.4776    2.0999    0.0000 H       1  UNL1        0.0299
     32 H           3.4980    4.1937    0.0000 H       1  UNL1        0.0750
     33 H           3.1068    3.4978    0.0000 H       1  UNL1        0.0750
     34 H           1.4802   -1.4992    0.0000 H       1  UNL1        0.0628
     35 H           4.9547    1.1628    0.0000 H       1  UNL1        0.0231
     36 H           5.1719    0.3133    0.0000 H       1  UNL1        0.0231
     37 H           6.0214    0.5305    0.0000 H       1  UNL1        0.0231
     38 H           6.8118    2.0266    0.0000 H       1  UNL1        0.2113
     39 H           1.6270   -3.3202    0.0000 H       1  UNL1        0.0624
     40 H           4.9914   -2.9695    0.0000 H       1  UNL1        0.0639
     41 H           2.6160   -4.7062    0.0000 H       1  UNL1        0.0618
     42 H           4.3095   -4.5297    0.0000 H       1  UNL1        0.0618
@<TRIPOS>BOND
     1     1    17    1
     2     1    18    1
     3     7     2    1
     4     2    38    1
     5     3    15    2
     6     4    18    2
     7     5     9   ar
     8     5    11    1
     9     5    15   ar
    10     6    14   ar
    11     6    22   ar
    12     7     8    1
    13     7    16    1
    14     7    18    1
    15     8    10   ar
    16     8    12   ar
    17     9    12   ar
    18     9    14    1
    19    10    15   ar
    20    10    17    1
    21    11    13    1
    22    11    27    1
    23    11    28    1
    24    12    29    1
    25    13    14   ar
    26    13    19   ar
    27    16    20    1
    28    16    30    1
    29    16    31    1
    30    17    32    1
    31    17    33    1
    32    19    21   ar
    33    19    34    1
    34    20    35    1
    35    20    36    1
    36    20    37    1
    37    21    22   ar
    38    21    23   ar
    39    22    24   ar
    40    23    25   ar
    41    23    39    1
    42    24    26   ar
    43    24    40    1
    44    25    26   ar
    45    25    41    1
    46    26    42    1
