@<TRIPOS>MOLECULE
IMPHY015039
 27 27 0 0 0
SMALL
GASTEIGER

@<TRIPOS>ATOM
      1 O           4.2690    1.9050    0.0000 O.3     1  UNL1       -0.3745
      2 O           6.0010    0.9050    0.0000 O.3     1  UNL1       -0.3865
      3 O           2.5369    0.9050    0.0000 O.3     1  UNL1       -0.3865
      4 O           6.0010   -1.0950    0.0000 O.3     1  UNL1       -0.3865
      5 O           2.5369   -1.0950    0.0000 O.3     1  UNL1       -0.3865
      6 O           4.2690   -2.0950    0.0000 O.3     1  UNL1       -0.3865
      7 C           4.2690    0.9050    0.0000 C.3     1  UNL1        0.1149
      8 C           5.1350    0.4050    0.0000 C.3     1  UNL1        0.1121
      9 C           3.4030    0.4050    0.0000 C.3     1  UNL1        0.1121
     10 C           5.1350   -0.5950    0.0000 C.3     1  UNL1        0.1118
     11 C           3.4030   -0.5950    0.0000 C.3     1  UNL1        0.1118
     12 C           4.2690   -1.0950    0.0000 C.3     1  UNL1        0.1118
     13 C           5.1350    2.4050    0.0000 C.3     1  UNL1        0.0370
     14 H           4.8059    1.2150    0.0000 H       1  UNL1        0.0649
     15 H           5.6720    0.0950    0.0000 H       1  UNL1        0.0647
     16 H           3.4030    1.0250    0.0000 H       1  UNL1        0.0647
     17 H           5.1350   -1.2150    0.0000 H       1  UNL1        0.0647
     18 H           3.4030   -1.2150    0.0000 H       1  UNL1        0.0647
     19 H           3.7320   -1.4050    0.0000 H       1  UNL1        0.0647
     20 H           6.5380    0.5950    0.0000 H       1  UNL1        0.2100
     21 H           2.0000    0.5950    0.0000 H       1  UNL1        0.2100
     22 H           6.0010   -1.7150    0.0000 H       1  UNL1        0.2100
     23 H           2.5369   -1.7150    0.0000 H       1  UNL1        0.2100
     24 H           3.7320   -2.4050    0.0000 H       1  UNL1        0.2100
     25 H           5.4450    1.8681    0.0000 H       1  UNL1        0.0524
     26 H           5.6720    2.7150    0.0000 H       1  UNL1        0.0524
     27 H           4.8250    2.9419    0.0000 H       1  UNL1        0.0524
@<TRIPOS>BOND
     1     1     7    1
     2     1    13    1
     3     8     2    1
     4     2    20    1
     5     9     3    1
     6     3    21    1
     7    10     4    1
     8     4    22    1
     9    11     5    1
    10     5    23    1
    11     6    12    1
    12     6    24    1
    13     7     8    1
    14     7     9    1
    15     7    14    1
    16     8    10    1
    17     8    15    1
    18     9    11    1
    19     9    16    1
    20    10    12    1
    21    10    17    1
    22    11    12    1
    23    11    18    1
    24    12    19    1
    25    13    25    1
    26    13    26    1
    27    13    27    1
