@<TRIPOS>MOLECULE
IMPHY002387
 66 73 0 0 0
SMALL
GASTEIGER

@<TRIPOS>ATOM
      1 C           7.3564    8.5513    0.0000 C.3     1  UNL1        0.1011
      2 C           8.3108    8.8987    0.0000 C.3     1  UNL1        0.2213
      3 C           7.1808    7.5588    0.0000 C.ar    1  UNL1        0.0631
      4 C           6.5891    9.2003    0.0000 C.ar    1  UNL1        0.0585
      5 C           8.4902    9.8951    0.0000 C.3     1  UNL1        0.2286
      6 O           9.0858    8.2497    0.0000 O.3     1  UNL1       -0.4444
      7 C           6.3104    7.0587    0.0000 C.ar    1  UNL1        0.1942
      8 C           8.0550    7.0548    0.0000 C.ar    1  UNL1        0.1982
      9 C           6.7609   10.1929    0.0000 C.ar    1  UNL1        0.1417
     10 C           5.6423    8.8606    0.0000 C.ar    1  UNL1        0.1982
     11 C           9.4370   10.2387    0.0000 C.ar    1  UNL1        0.0274
     12 O           7.7115   10.5403    0.0000 O.3     1  UNL1       -0.4711
     13 C          10.0784    8.4253    0.0000 C.2     1  UNL1        0.3414
     14 C           6.3066    6.0546    0.0000 C.ar    1  UNL1        0.0543
     15 O           5.7034    7.4137    0.0000 O.3     1  UNL1       -0.2870
     16 C           8.0550    6.0508    0.0000 C.ar    1  UNL1        0.0785
     17 O           8.9293    7.5588    0.0000 O.3     1  UNL1       -0.2867
     18 C           5.9936   10.8457    0.0000 C.ar    1  UNL1        0.0788
     19 C           4.8750    9.5057    0.0000 C.ar    1  UNL1        0.0839
     20 O           5.4629    7.8680    0.0000 O.3     1  UNL1       -0.2867
     21 C           9.6088   11.2351    0.0000 C.ar    1  UNL1        0.0449
     22 C          10.2081    9.5935    0.0000 C.ar    1  UNL1        0.0449
     23 C          10.7273    7.6542    0.0000 C.ar    1  UNL1        0.0822
     24 O          10.3189    9.0896    0.0000 O.2     1  UNL1       -0.2449
     25 C           7.1808    5.5507    0.0000 C.ar    1  UNL1        0.1414
     26 C           5.4324    5.5507    0.0000 C.3     1  UNL1        0.0805
     27 C           5.0506   10.4983    0.0000 C.ar    1  UNL1        0.2019
     28 C          10.5555   11.5787    0.0000 C.ar    1  UNL1        0.2373
     29 C          11.1549    9.9371    0.0000 C.ar    1  UNL1        0.2373
     30 C          11.7199    7.8260    0.0000 C.ar    1  UNL1        0.0520
     31 C          10.3799    6.7036    0.0000 C.ar    1  UNL1        0.0520
     32 O           7.1808    4.5391    0.0000 O.3     1  UNL1       -0.4711
     33 C           5.4324    4.5353    0.0000 C.3     1  UNL1        0.2175
     34 O           4.2757   11.1473    0.0000 O.3     1  UNL1       -0.2864
     35 C          11.3305   10.9335    0.0000 C.ar    1  UNL1        0.2727
     36 O          10.7312   12.5712    0.0000 O.3     1  UNL1       -0.2830
     37 O          11.9299    9.2919    0.0000 O.3     1  UNL1       -0.2830
     38 C          12.3651    7.0548    0.0000 C.ar    1  UNL1        0.2377
     39 C          11.0289    5.9325    0.0000 C.ar    1  UNL1        0.2377
     40 C           6.3104    4.0313    0.0000 C.3     1  UNL1        0.2283
     41 O           4.5620    4.0313    0.0000 O.3     1  UNL1       -0.4447
     42 O          12.2773   11.2771    0.0000 O.3     1  UNL1       -0.2797
     43 C          12.0215    6.1081    0.0000 C.ar    1  UNL1        0.2727
     44 O          13.3615    7.2305    0.0000 O.3     1  UNL1       -0.2830
     45 O          10.6853    4.9857    0.0000 O.3     1  UNL1       -0.2830
     46 C           6.3104    3.0235    0.0000 C.ar    1  UNL1        0.0274
     47 C           3.7870    4.6803    0.0000 C.2     1  UNL1        0.3414
     48 O          12.6705    5.3369    0.0000 O.3     1  UNL1       -0.2797
     49 C           7.1846    2.5196    0.0000 C.ar    1  UNL1        0.0449
     50 C           5.4362    2.5158    0.0000 C.ar    1  UNL1        0.0449
     51 C           2.8403    4.3367    0.0000 C.ar    1  UNL1        0.0822
     52 O           3.9626    5.6729    0.0000 O.2     1  UNL1       -0.2449
     53 C           7.1846    1.5118    0.0000 C.ar    1  UNL1        0.2373
     54 C           5.4400    1.5079    0.0000 C.ar    1  UNL1        0.2373
     55 C           2.6647    3.3442    0.0000 C.ar    1  UNL1        0.0520
     56 C           2.0691    4.9857    0.0000 C.ar    1  UNL1        0.0520
     57 C           6.3104    1.0078    0.0000 C.ar    1  UNL1        0.2727
     58 O           8.0589    1.0078    0.0000 O.3     1  UNL1       -0.2830
     59 O           4.5658    1.0040    0.0000 O.3     1  UNL1       -0.2830
     60 C           1.7179    2.9968    0.0000 C.ar    1  UNL1        0.2377
     61 C           1.1185    4.6421    0.0000 C.ar    1  UNL1        0.2377
     62 O           6.3142    0.0000    0.0000 O.3     1  UNL1       -0.2797
     63 C           0.9468    3.6458    0.0000 C.ar    1  UNL1        0.2727
     64 O           1.5423    2.0080    0.0000 O.3     1  UNL1       -0.2830
     65 O           0.3474    5.2873    0.0000 O.3     1  UNL1       -0.2830
     66 O           0.0000    3.3022    0.0000 O.3     1  UNL1       -0.2797
@<TRIPOS>BOND
     1     1     2    1
     2     1     3    1
     3     1     4    1
     4     2     5    1
     5     2     6    1
     6     3     7   ar
     7     3     8   ar
     8     4     9   ar
     9     4    10   ar
    10     5    11    1
    11     5    12    1
    12     6    13    1
    13     7    14   ar
    14     7    15    1
    15     8    16   ar
    16     8    17    1
    17     9    12    1
    18     9    18   ar
    19    10    19   ar
    20    10    20    1
    21    11    21   ar
    22    11    22   ar
    23    13    23    1
    24    13    24    2
    25    14    25   ar
    26    14    26    1
    27    16    25   ar
    28    18    27   ar
    29    19    27   ar
    30    21    28   ar
    31    22    29   ar
    32    23    30   ar
    33    23    31   ar
    34    25    32    1
    35    26    33    1
    36    27    34    1
    37    28    35   ar
    38    28    36    1
    39    29    35   ar
    40    29    37    1
    41    30    38   ar
    42    31    39   ar
    43    32    40    1
    44    33    40    1
    45    33    41    1
    46    35    42    1
    47    38    43   ar
    48    38    44    1
    49    39    43   ar
    50    39    45    1
    51    40    46    1
    52    41    47    1
    53    43    48    1
    54    46    49   ar
    55    46    50   ar
    56    47    51    1
    57    47    52    2
    58    49    53   ar
    59    50    54   ar
    60    51    55   ar
    61    51    56   ar
    62    53    57   ar
    63    53    58    1
    64    54    57   ar
    65    54    59    1
    66    55    60   ar
    67    56    61   ar
    68    57    62    1
    69    60    63   ar
    70    60    64    1
    71    61    63   ar
    72    61    65    1
    73    63    66    1
