@<TRIPOS>MOLECULE
IMPHY012850
 39 42 0 0 0
SMALL
GASTEIGER

@<TRIPOS>ATOM
      1 O           2.0000    1.4815    0.0000 O.2     1  UNL1       -0.2679
      2 N           5.5141   -1.5842    0.0000 N.3     1  UNL1       -0.3062
      3 N           3.7702    1.4920    0.0000 N.ar    1  UNL1       -0.3259
      4 C           5.5301   -0.5427    0.0000 C.3     1  UNL1        0.0531
      5 C           6.3961   -0.0427    0.0000 C.3     1  UNL1       -0.0116
      6 C           6.3961    0.9573    0.0000 C.3     1  UNL1       -0.0125
      7 C           7.3062   -0.5495    0.0000 C.3     1  UNL1       -0.0465
      8 C           5.3270   -0.1728    0.0000 C.3     1  UNL1       -0.0092
      9 C           4.6641   -0.0427    0.0000 C.ar    1  UNL1       -0.0074
     10 C           5.5301    1.4573    0.0000 C.3     1  UNL1       -0.0055
     11 C           7.3142   -1.5911    0.0000 C.3     1  UNL1       -0.0401
     12 C           4.6641    0.9573    0.0000 C.ar    1  UNL1        0.0246
     13 C           5.9742    0.9482    0.0000 C.2     1  UNL1       -0.0812
     14 C           6.4121   -2.1119    0.0000 C.3     1  UNL1       -0.0033
     15 C           5.2434    0.6229    0.0000 C.2     1  UNL1       -0.0742
     16 C           3.7702   -0.5773    0.0000 C.ar    1  UNL1       -0.0500
     17 C           4.9014    1.5626    0.0000 C.3     1  UNL1       -0.0437
     18 C           2.8641   -0.0635    0.0000 C.ar    1  UNL1        0.0031
     19 C           2.8641    0.9781    0.0000 C.ar    1  UNL1        0.2489
     20 H           7.1323    0.3823    0.0000 H       1  UNL1        0.0328
     21 H           6.8212    1.6934    0.0000 H       1  UNL1        0.0350
     22 H           7.9178   -0.6509    0.0000 H       1  UNL1        0.0269
     23 H           7.5107    0.0358    0.0000 H       1  UNL1        0.0269
     24 H           4.7323    0.0024    0.0000 H       1  UNL1        0.0331
     25 H           5.9187    0.0125    0.0000 H       1  UNL1        0.0331
     26 H           5.9286    1.9323    0.0000 H       1  UNL1        0.0333
     27 H           5.1316    1.9323    0.0000 H       1  UNL1        0.0333
     28 H           4.9736   -1.8880    0.0000 H       1  UNL1        0.1228
     29 H           7.5277   -2.1732    0.0000 H       1  UNL1        0.0278
     30 H           7.9242   -1.4803    0.0000 H       1  UNL1        0.0278
     31 H           5.8388    1.5533    0.0000 H       1  UNL1        0.0575
     32 H           6.0111   -2.5848    0.0000 H       1  UNL1        0.0424
     33 H           6.8094   -2.5879    0.0000 H       1  UNL1        0.0424
     34 H           3.7773   -1.1973    0.0000 H       1  UNL1        0.0623
     35 H           3.7773    2.1119    0.0000 H       1  UNL1        0.1686
     36 H           5.4840    1.7746    0.0000 H       1  UNL1        0.0274
     37 H           4.6893    2.1452    0.0000 H       1  UNL1        0.0274
     38 H           4.3188    1.3505    0.0000 H       1  UNL1        0.0274
     39 H           2.3284   -0.3756    0.0000 H       1  UNL1        0.0672
@<TRIPOS>BOND
     1     1    19    2
     2     4     2    1
     3     2    14    1
     4     2    28    1
     5     3    12   ar
     6     3    19   ar
     7     3    35    1
     8     4     5    1
     9     4     8    1
    10     4     9    1
    11     5     6    1
    12     5     7    1
    13     5    20    1
    14     6    10    1
    15     6    13    1
    16     6    21    1
    17     7    11    1
    18     7    22    1
    19     7    23    1
    20     8    15    1
    21     8    24    1
    22     8    25    1
    23     9    12   ar
    24     9    16   ar
    25    10    12    1
    26    10    26    1
    27    10    27    1
    28    11    14    1
    29    11    29    1
    30    11    30    1
    31    13    15    2
    32    13    31    1
    33    14    32    1
    34    14    33    1
    35    15    17    1
    36    16    18   ar
    37    16    34    1
    38    17    36    1
    39    17    37    1
    40    17    38    1
    41    18    19   ar
    42    18    39    1
