@<TRIPOS>MOLECULE
IMPHY006586
 61 64 0 0 0
SMALL
GASTEIGER

@<TRIPOS>ATOM
      1 O          10.4473    0.4833    0.0000 O.3     1  UNL1       -0.3911
      2 O           5.3194    1.4833    0.0000 O.2     1  UNL1       -0.2968
      3 O           8.5065    2.9828    0.0000 O.2     1  UNL1       -0.2973
      4 O           2.5405    0.0226    0.0000 O.2     1  UNL1       -0.5036
      5 O           2.5244   -2.0690    0.0000 O.2     1  UNL1       -0.2879
      6 C           7.9174   -0.0167    0.0000 C.3     1  UNL1       -0.0192
      7 C           7.9174    0.9833    0.0000 C.3     1  UNL1       -0.0078
      8 C           7.0514   -0.5167    0.0000 C.3     1  UNL1       -0.0187
      9 C           6.1854   -0.0167    0.0000 C.3     1  UNL1        0.0398
     10 C           8.8637    1.2880    0.0000 C.3     1  UNL1        0.0494
     11 C           8.8637   -0.3215    0.0000 C.3     1  UNL1       -0.0199
     12 C           7.0514    1.4833    0.0000 C.3     1  UNL1        0.0130
     13 C           9.4473    0.4833    0.0000 C.3     1  UNL1        0.0658
     14 C           5.2754   -0.5236    0.0000 C.3     1  UNL1        0.0152
     15 C           6.1854    0.9833    0.0000 C.2     1  UNL1        0.1409
     16 C           7.0675   -1.5582    0.0000 C.3     1  UNL1       -0.0302
     17 C           7.9174   -1.0167    0.0000 C.3     1  UNL1       -0.0587
     18 C           7.9174    1.9833    0.0000 C.3     1  UNL1       -0.0579
     19 C           5.3194    0.4833    0.0000 C.3     1  UNL1       -0.0517
     20 C           5.2674   -1.5652    0.0000 C.2     1  UNL1       -0.0524
     21 C           6.1694   -2.0860    0.0000 C.2     1  UNL1       -0.0829
     22 C           9.1743    2.2385    0.0000 C.2     1  UNL1        0.1364
     23 C           4.3319   -2.1149    0.0000 C.3     1  UNL1        0.0525
     24 C           4.3486    0.0405    0.0000 C.2     1  UNL1       -0.0309
     25 C           3.3923   -1.5724    0.0000 C.2     1  UNL1        0.2063
     26 C           3.4007   -0.4874    0.0000 C.2     1  UNL1        0.1567
     27 C          10.1528    2.4448    0.0000 C.3     1  UNL1       -0.0057
     28 C           3.8353   -2.9828    0.0000 C.3     1  UNL1       -0.0489
     29 C           4.8353   -2.9790    0.0000 C.3     1  UNL1       -0.0489
     30 H           7.7908   -0.9360    0.0000 H       1  UNL1        0.0319
     31 H           8.4262    1.7274    0.0000 H       1  UNL1        0.0408
     32 H           8.6126   -0.8884    0.0000 H       1  UNL1        0.0296
     33 H           9.4010   -0.6307    0.0000 H       1  UNL1        0.0296
     34 H           7.4500    1.9582    0.0000 H       1  UNL1        0.0347
     35 H           6.6529    1.9582    0.0000 H       1  UNL1        0.0347
     36 H           9.7290   -0.0690    0.0000 H       1  UNL1        0.0600
     37 H           6.0066   -0.9570    0.0000 H       1  UNL1        0.0399
     38 H           7.2855   -2.1386    0.0000 H       1  UNL1        0.0311
     39 H           7.6766   -1.4427    0.0000 H       1  UNL1        0.0311
     40 H           7.2974   -1.0167    0.0000 H       1  UNL1        0.0235
     41 H           7.9174   -1.6367    0.0000 H       1  UNL1        0.0235
     42 H           8.5374   -1.0167    0.0000 H       1  UNL1        0.0235
     43 H           8.5374    1.9833    0.0000 H       1  UNL1        0.0236
     44 H           7.9174    2.6033    0.0000 H       1  UNL1        0.0236
     45 H           7.2974    1.9833    0.0000 H       1  UNL1        0.0236
     46 H           5.6294    1.0202    0.0000 H       1  UNL1        0.0239
     47 H           4.7824    0.7933    0.0000 H       1  UNL1        0.0239
     48 H           5.0094   -0.0537    0.0000 H       1  UNL1        0.0239
     49 H           6.1718   -2.7060    0.0000 H       1  UNL1        0.0572
     50 H           4.3605    0.6604    0.0000 H       1  UNL1        0.0616
     51 H          10.7573   -0.0537    0.0000 H       1  UNL1        0.2098
     52 H          10.2807    1.8381    0.0000 H       1  UNL1        0.0306
     53 H          10.7595    2.5726    0.0000 H       1  UNL1        0.0306
     54 H          10.0250    3.0514    0.0000 H       1  UNL1        0.0306
     55 H           4.2995   -3.2910    0.0000 H       1  UNL1        0.0242
     56 H           5.1473   -3.5147    0.0000 H       1  UNL1        0.0242
     57 H           5.3710   -2.6669    0.0000 H       1  UNL1        0.0242
     58 H           3.2972   -2.6749    0.0000 H       1  UNL1        0.0242
     59 H           3.5274   -3.5210    0.0000 H       1  UNL1        0.0242
     60 H           4.3734   -3.2908    0.0000 H       1  UNL1        0.0242
     61 H           2.0000   -0.2812    0.0000 H       1  UNL1        0.2923
@<TRIPOS>BOND
     1    13     1    1
     2     1    51    1
     3     2    15    2
     4     3    22    2
     5     4    26    1
     6     4    61    1
     7     5    25    2
     8     6     7    1
     9     6     8    1
    10     6    11    1
    11     6    17    1
    12     7    10    1
    13     7    12    1
    14     7    18    1
    15     8     9    1
    16     8    16    1
    17     8    30    1
    18     9    14    1
    19     9    15    1
    20     9    19    1
    21    10    13    1
    22    10    22    1
    23    10    31    1
    24    11    13    1
    25    11    32    1
    26    11    33    1
    27    12    15    1
    28    12    34    1
    29    12    35    1
    30    13    36    1
    31    14    20    1
    32    14    24    1
    33    14    37    1
    34    16    21    1
    35    16    38    1
    36    16    39    1
    37    17    40    1
    38    17    41    1
    39    17    42    1
    40    18    43    1
    41    18    44    1
    42    18    45    1
    43    19    46    1
    44    19    47    1
    45    19    48    1
    46    20    21    2
    47    20    23    1
    48    21    49    1
    49    22    27    1
    50    23    25    1
    51    23    28    1
    52    23    29    1
    53    24    26    2
    54    24    50    1
    55    25    26    1
    56    27    52    1
    57    27    53    1
    58    27    54    1
    59    28    58    1
    60    28    59    1
    61    28    60    1
    62    29    55    1
    63    29    56    1
    64    29    57    1
