@<TRIPOS>MOLECULE
IMPHY009723
 67 71 0 0 0
SMALL
GASTEIGER

@<TRIPOS>ATOM
      1 O           7.0837   -0.0294    0.0000 O.3     1  UNL1       -0.3609
      2 O           6.2177   -2.5294    0.0000 O.3     1  UNL1       -0.3461
      3 O           4.4381   -2.6226    0.0000 O.3     1  UNL1       -0.3457
      4 O           7.9497   -2.5294    0.0000 O.3     1  UNL1       -0.3865
      5 O           9.6818   -1.5294    0.0000 O.3     1  UNL1       -0.3865
      6 O           9.6818    0.4706    0.0000 O.3     1  UNL1       -0.3862
      7 O           4.4769   -5.2099    0.0000 O.3     1  UNL1       -0.3812
      8 O           5.9903   -4.6930    0.0000 O.3     1  UNL1       -0.3837
      9 O           2.5369   -4.2318    0.0000 O.3     1  UNL1       -0.3920
     10 O           9.7097    1.4360    0.0000 O.2     1  UNL1       -0.4616
     11 O           6.2177    1.4706    0.0000 O.3     1  UNL1       -0.5063
     12 O           9.6981    4.5052    0.0000 O.2     1  UNL1       -0.2864
     13 O          14.0721    5.0048    0.0000 O.3     1  UNL1       -0.5068
     14 C           7.0837   -1.0294    0.0000 C.3     1  UNL1        0.1112
     15 C           7.9497   -1.5294    0.0000 C.3     1  UNL1        0.1118
     16 C           8.8158   -1.0294    0.0000 C.3     1  UNL1        0.1121
     17 C           8.8158   -0.0294    0.0000 C.3     1  UNL1        0.1139
     18 C           7.9497    0.4706    0.0000 C.3     1  UNL1        0.1193
     19 C           4.2690   -4.2318    0.0000 C.3     1  UNL1        0.1425
     20 C           5.2471   -4.0239    0.0000 C.3     1  UNL1        0.1387
     21 C           5.3517   -3.0294    0.0000 C.3     1  UNL1        0.1880
     22 C           6.2177   -1.5294    0.0000 C.3     1  UNL1        0.0795
     23 C           3.7690   -3.3658    0.0000 C.3     1  UNL1        0.0843
     24 C           7.9497    1.4706    0.0000 C.ar    1  UNL1        0.0679
     25 C           3.4030   -4.7318    0.0000 C.3     1  UNL1        0.0778
     26 C           8.8158    1.9706    0.0000 C.ar    1  UNL1        0.1476
     27 C           7.0837    1.9706    0.0000 C.ar    1  UNL1        0.1261
     28 C           8.8158    2.9706    0.0000 C.ar    1  UNL1        0.0651
     29 C           7.0837    2.9706    0.0000 C.ar    1  UNL1       -0.0189
     30 C           7.9497    3.4706    0.0000 C.ar    1  UNL1       -0.0439
     31 C           9.7097    3.5053    0.0000 C.ar    1  UNL1        0.2002
     32 C          10.6158    2.9915    0.0000 C.ar    1  UNL1        0.0643
     33 C          10.6158    1.9498    0.0000 C.ar    1  UNL1        0.1039
     34 C          11.4799    3.4948    0.0000 C.ar    1  UNL1       -0.0110
     35 C          12.3478    2.9981    0.0000 C.ar    1  UNL1       -0.0504
     36 C          11.4760    4.4948    0.0000 C.ar    1  UNL1       -0.0504
     37 C          13.2119    3.5015    0.0000 C.ar    1  UNL1       -0.0196
     38 C          12.3401    4.9981    0.0000 C.ar    1  UNL1       -0.0196
     39 C          13.2080    4.5015    0.0000 C.ar    1  UNL1        0.1169
     40 H           6.5468   -0.7194    0.0000 H       1  UNL1        0.0646
     41 H           8.4867   -1.8394    0.0000 H       1  UNL1        0.0647
     42 H           9.3527   -0.7194    0.0000 H       1  UNL1        0.0647
     43 H           8.8158    0.5906    0.0000 H       1  UNL1        0.0649
     44 H           7.4128    0.7806    0.0000 H       1  UNL1        0.0676
     45 H           5.8260   -3.8017    0.0000 H       1  UNL1        0.0675
     46 H           5.3192   -2.4102    0.0000 H       1  UNL1        0.0937
     47 H           6.0056   -0.9467    0.0000 H       1  UNL1        0.0587
     48 H           5.6071   -1.6370    0.0000 H       1  UNL1        0.0587
     49 H           3.3541   -2.9050    0.0000 H       1  UNL1        0.0591
     50 H           3.2674   -3.7302    0.0000 H       1  UNL1        0.0591
     51 H           3.0044   -5.2067    0.0000 H       1  UNL1        0.0587
     52 H           3.8015   -5.2067    0.0000 H       1  UNL1        0.0587
     53 H           8.4867   -2.8394    0.0000 H       1  UNL1        0.2100
     54 H           9.6818   -2.1494    0.0000 H       1  UNL1        0.2100
     55 H          10.2187    0.1606    0.0000 H       1  UNL1        0.2100
     56 H           4.0162   -5.6248    0.0000 H       1  UNL1        0.2105
     57 H           5.8614   -5.2995    0.0000 H       1  UNL1        0.2101
     58 H           6.5468    3.2806    0.0000 H       1  UNL1        0.0654
     59 H           7.9497    4.0906    0.0000 H       1  UNL1        0.0627
     60 H           2.0000   -4.5418    0.0000 H       1  UNL1        0.2095
     61 H           5.6808    1.7806    0.0000 H       1  UNL1        0.2921
     62 H          11.1515    1.6378    0.0000 H       1  UNL1        0.1037
     63 H          12.3502    2.3781    0.0000 H       1  UNL1        0.0625
     64 H          10.9379    4.8027    0.0000 H       1  UNL1        0.0625
     65 H          13.7500    3.1935    0.0000 H       1  UNL1        0.0654
     66 H          12.3377    5.6181    0.0000 H       1  UNL1        0.0654
     67 H          14.0697    5.6248    0.0000 H       1  UNL1        0.2921
@<TRIPOS>BOND
     1     1    14    1
     2     1    18    1
     3     2    21    1
     4     2    22    1
     5     3    21    1
     6     3    23    1
     7     4    15    1
     8     4    53    1
     9     5    16    1
    10     5    54    1
    11     6    17    1
    12     6    55    1
    13     7    19    1
    14     7    56    1
    15     8    20    1
    16     8    57    1
    17     9    25    1
    18     9    60    1
    19    10    26   ar
    20    10    33   ar
    21    11    27    1
    22    11    61    1
    23    12    31    2
    24    13    39    1
    25    13    67    1
    26    14    15    1
    27    14    22    1
    28    14    40    1
    29    15    16    1
    30    15    41    1
    31    16    17    1
    32    16    42    1
    33    17    18    1
    34    17    43    1
    35    18    24    1
    36    18    44    1
    37    19    20    1
    38    19    23    1
    39    19    25    1
    40    20    21    1
    41    20    45    1
    42    21    46    1
    43    22    47    1
    44    22    48    1
    45    23    49    1
    46    23    50    1
    47    24    26   ar
    48    24    27   ar
    49    25    51    1
    50    25    52    1
    51    26    28   ar
    52    27    29   ar
    53    28    30   ar
    54    28    31   ar
    55    29    30   ar
    56    29    58    1
    57    30    59    1
    58    31    32   ar
    59    32    33   ar
    60    32    34    1
    61    33    62    1
    62    34    35   ar
    63    34    36   ar
    64    35    37   ar
    65    35    63    1
    66    36    38   ar
    67    36    64    1
    68    37    39   ar
    69    37    65    1
    70    38    39   ar
    71    38    66    1
