@<TRIPOS>MOLECULE
IMPHY009118
 81 85 0 0 0
SMALL
GASTEIGER

@<TRIPOS>ATOM
      1 O          11.1246    2.5364    0.0000 O.3     1  UNL1       -0.3912
      2 C           5.7847   -0.6080    0.0000 C.3     1  UNL1       -0.0194
      3 C           6.6507   -1.1080    0.0000 C.3     1  UNL1       -0.0196
      4 C           4.8746   -1.1148    0.0000 C.3     1  UNL1       -0.0289
      5 C           4.8666   -2.1564    0.0000 C.3     1  UNL1       -0.0287
      6 C           7.5167   -0.6080    0.0000 C.3     1  UNL1       -0.0135
      7 C           6.6667   -2.1495    0.0000 C.3     1  UNL1       -0.0461
      8 C           8.4106    0.9267    0.0000 C.3     1  UNL1       -0.0073
      9 C           7.5167    0.3920    0.0000 C.2     1  UNL1       -0.0636
     10 C           5.7687   -2.6772    0.0000 C.3     1  UNL1       -0.0468
     11 C           5.7847    0.3920    0.0000 C.3     1  UNL1       -0.0283
     12 C           9.3167    0.4128    0.0000 C.3     1  UNL1       -0.0244
     13 C           3.9478   -0.5507    0.0000 C.3     1  UNL1       -0.0440
     14 C           8.4106   -1.1426    0.0000 C.3     1  UNL1       -0.0457
     15 C           3.9312   -2.7062    0.0000 C.3     1  UNL1       -0.0469
     16 C           2.9999   -1.0787    0.0000 C.3     1  UNL1       -0.0346
     17 C           9.3167   -0.6288    0.0000 C.3     1  UNL1       -0.0483
     18 C           4.9186   -0.1080    0.0000 C.3     1  UNL1       -0.0585
     19 C           7.5167   -1.6080    0.0000 C.3     1  UNL1       -0.0585
     20 C           6.6507    0.8920    0.0000 C.2     1  UNL1       -0.0834
     21 C          10.2605    0.9481    0.0000 C.3     1  UNL1       -0.0053
     22 C           2.9916   -2.1636    0.0000 C.3     1  UNL1       -0.0474
     23 C           8.3856    2.0114    0.0000 C.3     1  UNL1       -0.0413
     24 C           4.8589   -3.1564    0.0000 C.3     1  UNL1       -0.0593
     25 C          10.2605    2.0331    0.0000 C.3     1  UNL1        0.0607
     26 C           7.5408    1.4200    0.0000 C.3     1  UNL1       -0.0556
     27 C           9.3167    2.5683    0.0000 C.3     1  UNL1       -0.0256
     28 C           2.0000   -1.0671    0.0000 C.3     1  UNL1       -0.0598
     29 C           2.5100   -0.2069    0.0000 C.3     1  UNL1       -0.0598
     30 C          11.2605    0.9442    0.0000 C.3     1  UNL1       -0.0572
     31 C          10.7572    0.0801    0.0000 C.3     1  UNL1       -0.0572
     32 H           5.6058   -1.5483    0.0000 H       1  UNL1        0.0312
     33 H           8.2561   -0.1887    0.0000 H       1  UNL1        0.0351
     34 H           6.8848   -2.7299    0.0000 H       1  UNL1        0.0271
     35 H           7.2759   -2.0340    0.0000 H       1  UNL1        0.0271
     36 H           5.3714   -3.1532    0.0000 H       1  UNL1        0.0271
     37 H           6.1697   -3.1501    0.0000 H       1  UNL1        0.0271
     38 H           5.5726    0.9746    0.0000 H       1  UNL1        0.0313
     39 H           5.1741    0.2844    0.0000 H       1  UNL1        0.0313
     40 H          10.0512   -0.0150    0.0000 H       1  UNL1        0.0315
     41 H           4.3560   -0.0841    0.0000 H       1  UNL1        0.0273
     42 H           3.5579   -0.0687    0.0000 H       1  UNL1        0.0273
     43 H           8.0060   -1.6124    0.0000 H       1  UNL1        0.0271
     44 H           8.8043   -1.6217    0.0000 H       1  UNL1        0.0271
     45 H           3.5339   -3.1821    0.0000 H       1  UNL1        0.0271
     46 H           4.3322   -3.1790    0.0000 H       1  UNL1        0.0271
     47 H           9.5258   -1.2125    0.0000 H       1  UNL1        0.0269
     48 H           9.9276   -0.5227    0.0000 H       1  UNL1        0.0269
     49 H           5.2286    0.4290    0.0000 H       1  UNL1        0.0235
     50 H           4.3817    0.2020    0.0000 H       1  UNL1        0.0235
     51 H           4.6086   -0.6449    0.0000 H       1  UNL1        0.0235
     52 H           7.2067   -2.1449    0.0000 H       1  UNL1        0.0235
     53 H           8.0536   -1.9180    0.0000 H       1  UNL1        0.0235
     54 H           7.8267   -1.0710    0.0000 H       1  UNL1        0.0235
     55 H           6.6507    1.5120    0.0000 H       1  UNL1        0.0572
     56 H           2.3816   -2.0529    0.0000 H       1  UNL1        0.0271
     57 H           2.7780   -2.7457    0.0000 H       1  UNL1        0.0271
     58 H           8.1631    2.5901    0.0000 H       1  UNL1        0.0274
     59 H           7.7773    1.8912    0.0000 H       1  UNL1        0.0274
     60 H           4.2389   -3.1516    0.0000 H       1  UNL1        0.0235
     61 H           4.8541   -3.7764    0.0000 H       1  UNL1        0.0235
     62 H           5.4789   -3.1612    0.0000 H       1  UNL1        0.0235
     63 H          10.7980    1.7241    0.0000 H       1  UNL1        0.0599
     64 H           7.8466    1.9593    0.0000 H       1  UNL1        0.0238
     65 H           7.0015    1.7258    0.0000 H       1  UNL1        0.0238
     66 H           7.2349    0.8807    0.0000 H       1  UNL1        0.0238
     67 H           9.7103    3.0473    0.0000 H       1  UNL1        0.0290
     68 H           8.9121    3.0381    0.0000 H       1  UNL1        0.0290
     69 H           2.0072   -0.4472    0.0000 H       1  UNL1        0.0235
     70 H           1.3800   -1.0600    0.0000 H       1  UNL1        0.0235
     71 H           1.9928   -1.6871    0.0000 H       1  UNL1        0.0235
     72 H           3.0505    0.0968    0.0000 H       1  UNL1        0.0235
     73 H           2.2062    0.3335    0.0000 H       1  UNL1        0.0235
     74 H           1.9695   -0.5107    0.0000 H       1  UNL1        0.0235
     75 H          11.2581    0.3242    0.0000 H       1  UNL1        0.0236
     76 H          11.8805    0.9418    0.0000 H       1  UNL1        0.0236
     77 H          11.2629    1.5642    0.0000 H       1  UNL1        0.0236
     78 H          10.2190   -0.2278    0.0000 H       1  UNL1        0.0236
     79 H          11.0651   -0.4580    0.0000 H       1  UNL1        0.0236
     80 H          11.2953    0.3881    0.0000 H       1  UNL1        0.0236
     81 H          11.1222    3.1564    0.0000 H       1  UNL1        0.2098
@<TRIPOS>BOND
     1    25     1    1
     2     1    81    1
     3     2     3    1
     4     2     4    1
     5     2    11    1
     6     2    18    1
     7     3     6    1
     8     3     7    1
     9     3    19    1
    10     4     5    1
    11     4    13    1
    12     4    32    1
    13     5    10    1
    14     5    15    1
    15     5    24    1
    16     6     9    1
    17     6    14    1
    18     6    33    1
    19     7    10    1
    20     7    34    1
    21     7    35    1
    22     8     9    1
    23     8    12    1
    24     8    23    1
    25     8    26    1
    26     9    20    2
    27    10    36    1
    28    10    37    1
    29    11    20    1
    30    11    38    1
    31    11    39    1
    32    12    17    1
    33    12    21    1
    34    12    40    1
    35    13    16    1
    36    13    41    1
    37    13    42    1
    38    14    17    1
    39    14    43    1
    40    14    44    1
    41    15    22    1
    42    15    45    1
    43    15    46    1
    44    16    22    1
    45    16    28    1
    46    16    29    1
    47    17    47    1
    48    17    48    1
    49    18    49    1
    50    18    50    1
    51    18    51    1
    52    19    52    1
    53    19    53    1
    54    19    54    1
    55    20    55    1
    56    21    25    1
    57    21    30    1
    58    21    31    1
    59    22    56    1
    60    22    57    1
    61    23    27    1
    62    23    58    1
    63    23    59    1
    64    24    60    1
    65    24    61    1
    66    24    62    1
    67    25    27    1
    68    25    63    1
    69    26    64    1
    70    26    65    1
    71    26    66    1
    72    27    67    1
    73    27    68    1
    74    28    69    1
    75    28    70    1
    76    28    71    1
    77    29    72    1
    78    29    73    1
    79    29    74    1
    80    30    75    1
    81    30    76    1
    82    30    77    1
    83    31    78    1
    84    31    79    1
    85    31    80    1
