@<TRIPOS>MOLECULE
IMPHY015232
 35 35 0 0 0
SMALL
GASTEIGER

@<TRIPOS>ATOM
      1 O           3.7320   -1.1900    0.0000 O.3     1  UNL1       -0.4894
      2 O           5.4641   -3.1900    0.0000 O.3     1  UNL1       -0.3917
      3 C           3.7320    2.8100    0.0000 C.3     1  UNL1       -0.0127
      4 C           3.7320    1.8100    0.0000 C.ar    1  UNL1       -0.0415
      5 C           3.7320    3.8100    0.0000 C.3     1  UNL1       -0.0560
      6 C           4.7320    2.8100    0.0000 C.3     1  UNL1       -0.0560
      7 C           2.7320    2.8100    0.0000 C.3     1  UNL1       -0.0560
      8 C           2.8660    1.3100    0.0000 C.ar    1  UNL1       -0.0517
      9 C           4.5981    1.3100    0.0000 C.ar    1  UNL1       -0.0546
     10 C           2.8660    0.3100    0.0000 C.ar    1  UNL1       -0.0085
     11 C           3.7320   -0.1900    0.0000 C.ar    1  UNL1        0.1235
     12 C           4.5981    0.3100    0.0000 C.ar    1  UNL1       -0.0194
     13 C           2.0000   -0.1900    0.0000 C.3     1  UNL1       -0.0362
     14 C           4.5981   -1.6900    0.0000 C.3     1  UNL1        0.1126
     15 C           4.5981   -2.6900    0.0000 C.3     1  UNL1        0.0783
     16 H           4.3520    3.8100    0.0000 H       1  UNL1        0.0238
     17 H           3.7320    4.4300    0.0000 H       1  UNL1        0.0238
     18 H           3.1120    3.8100    0.0000 H       1  UNL1        0.0238
     19 H           4.7320    2.1900    0.0000 H       1  UNL1        0.0238
     20 H           5.3520    2.8100    0.0000 H       1  UNL1        0.0238
     21 H           4.7320    3.4300    0.0000 H       1  UNL1        0.0238
     22 H           2.7320    3.4300    0.0000 H       1  UNL1        0.0238
     23 H           2.1120    2.8100    0.0000 H       1  UNL1        0.0238
     24 H           2.7320    2.1900    0.0000 H       1  UNL1        0.0238
     25 H           2.3291    1.6200    0.0000 H       1  UNL1        0.0624
     26 H           5.1350    1.6200    0.0000 H       1  UNL1        0.0622
     27 H           5.1350   -0.0000    0.0000 H       1  UNL1        0.0654
     28 H           1.6900    0.3469    0.0000 H       1  UNL1        0.0279
     29 H           1.4631   -0.5000    0.0000 H       1  UNL1        0.0279
     30 H           2.3100   -0.7269    0.0000 H       1  UNL1        0.0279
     31 H           5.2087   -1.7977    0.0000 H       1  UNL1        0.0720
     32 H           4.8101   -1.1074    0.0000 H       1  UNL1        0.0720
     33 H           3.9875   -2.5823    0.0000 H       1  UNL1        0.0591
     34 H           4.3860   -3.2726    0.0000 H       1  UNL1        0.0591
     35 H           5.4641   -3.8100    0.0000 H       1  UNL1        0.2095
@<TRIPOS>BOND
     1     1    11    1
     2     1    14    1
     3     2    15    1
     4     2    35    1
     5     3     4    1
     6     3     5    1
     7     3     6    1
     8     3     7    1
     9     4     8   ar
    10     4     9   ar
    11     5    16    1
    12     5    17    1
    13     5    18    1
    14     6    19    1
    15     6    20    1
    16     6    21    1
    17     7    22    1
    18     7    23    1
    19     7    24    1
    20     8    10   ar
    21     8    25    1
    22     9    12   ar
    23     9    26    1
    24    10    11   ar
    25    10    13    1
    26    11    12   ar
    27    12    27    1
    28    13    28    1
    29    13    29    1
    30    13    30    1
    31    14    15    1
    32    14    31    1
    33    14    32    1
    34    15    33    1
    35    15    34    1
