@<TRIPOS>MOLECULE
IMPHY003529
 36 39 0 0 0
SMALL
GASTEIGER

@<TRIPOS>ATOM
      1 O           7.2641   -1.2500    0.0000 O.2     1  UNL1       -0.2865
      2 O           4.6660    1.2500    0.0000 O.2     1  UNL1       -0.2865
      3 O           9.0125   -1.2846    0.0000 O.3     1  UNL1       -0.5060
      4 O           2.9176    1.2846    0.0000 O.3     1  UNL1       -0.5060
      5 O           7.2641    2.7500    0.0000 O.2     1  UNL1       -0.2872
      6 O           4.6660   -2.7500    0.0000 O.2     1  UNL1       -0.2872
      7 C           6.3981    0.2500    0.0000 C.2     1  UNL1        0.0369
      8 C           5.5321   -0.2500    0.0000 C.2     1  UNL1        0.0369
      9 C           3.8000   -0.2500    0.0000 C.ar    1  UNL1        0.0744
     10 C           8.1301    0.2500    0.0000 C.ar    1  UNL1        0.0744
     11 C           8.1301    1.2500    0.0000 C.ar    1  UNL1        0.0360
     12 C           3.8000   -1.2500    0.0000 C.ar    1  UNL1        0.0360
     13 C           7.2641   -0.2500    0.0000 C.2     1  UNL1        0.1981
     14 C           4.6660    0.2500    0.0000 C.2     1  UNL1        0.1981
     15 C           6.3981    1.2500    0.0000 C.2     1  UNL1       -0.0028
     16 C           5.5321   -1.2500    0.0000 C.2     1  UNL1       -0.0028
     17 C           7.2641    1.7500    0.0000 C.2     1  UNL1        0.1876
     18 C           4.6660   -1.7500    0.0000 C.2     1  UNL1        0.1876
     19 C           9.0241   -0.2847    0.0000 C.ar    1  UNL1        0.1283
     20 C           2.9061    0.2847    0.0000 C.ar    1  UNL1        0.1283
     21 C           9.0241    1.7847    0.0000 C.ar    1  UNL1       -0.0500
     22 C           2.9061   -1.7847    0.0000 C.ar    1  UNL1       -0.0500
     23 C           9.9301    0.2292    0.0000 C.ar    1  UNL1       -0.0194
     24 C           2.0000   -0.2292    0.0000 C.ar    1  UNL1       -0.0194
     25 C           9.9301    1.2708    0.0000 C.ar    1  UNL1       -0.0576
     26 C           2.0000   -1.2708    0.0000 C.ar    1  UNL1       -0.0576
     27 H           6.0690   -1.5600    0.0000 H       1  UNL1        0.0663
     28 H           5.8612    1.5600    0.0000 H       1  UNL1        0.0663
     29 H           2.9132   -2.4046    0.0000 H       1  UNL1        0.0625
     30 H           9.0169    2.4046    0.0000 H       1  UNL1        0.0625
     31 H           1.4643    0.0829    0.0000 H       1  UNL1        0.0654
     32 H          10.4659   -0.0829    0.0000 H       1  UNL1        0.0654
     33 H           1.4643   -1.5829    0.0000 H       1  UNL1        0.0619
     34 H          10.4659    1.5829    0.0000 H       1  UNL1        0.0619
     35 H           2.3843    1.6008    0.0000 H       1  UNL1        0.2922
     36 H           9.5458   -1.6008    0.0000 H       1  UNL1        0.2922
@<TRIPOS>BOND
     1     1    13    2
     2     2    14    2
     3     3    19    1
     4     3    36    1
     5     4    20    1
     6     4    35    1
     7     5    17    2
     8     6    18    2
     9     7     8    1
    10     7    13    1
    11     7    15    2
    12     8    14    1
    13     8    16    2
    14     9    12   ar
    15     9    14    1
    16     9    20   ar
    17    10    11   ar
    18    10    13    1
    19    10    19   ar
    20    11    17    1
    21    11    21   ar
    22    12    18    1
    23    12    22   ar
    24    15    17    1
    25    15    28    1
    26    16    18    1
    27    16    27    1
    28    19    23   ar
    29    20    24   ar
    30    21    25   ar
    31    21    30    1
    32    22    26   ar
    33    22    29    1
    34    23    25   ar
    35    23    32    1
    36    24    26   ar
    37    24    31    1
    38    25    34    1
    39    26    33    1
