@<TRIPOS>MOLECULE
IMPHY013980
 29 31 0 0 0
SMALL
GASTEIGER

@<TRIPOS>ATOM
      1 C           4.6783   -0.5234    0.0000 C.3     1  UNL1        0.0098
      2 C           5.2619   -1.3282    0.0000 C.3     1  UNL1       -0.0382
      3 C           4.6783   -2.1329    0.0000 C.3     1  UNL1       -0.0266
      4 C           3.7320   -0.8281    0.0000 C.ar    1  UNL1       -0.0368
      5 C           3.7320   -1.8282    0.0000 C.ar    1  UNL1       -0.0436
      6 C           4.9889    0.4271    0.0000 C.ar    1  UNL1       -0.0400
      7 C           2.8660   -0.3281    0.0000 C.ar    1  UNL1       -0.0577
      8 C           2.8660   -2.3282    0.0000 C.ar    1  UNL1       -0.0583
      9 C           5.9674    0.6333    0.0000 C.ar    1  UNL1       -0.0580
     10 C           4.3211    1.1714    0.0000 C.ar    1  UNL1       -0.0580
     11 C           2.0000   -0.8281    0.0000 C.ar    1  UNL1       -0.0615
     12 C           2.0000   -1.8282    0.0000 C.ar    1  UNL1       -0.0615
     13 C           6.2781    1.5838    0.0000 C.ar    1  UNL1       -0.0615
     14 C           4.6318    2.1219    0.0000 C.ar    1  UNL1       -0.0615
     15 C           5.6103    2.3282    0.0000 C.ar    1  UNL1       -0.0617
     16 H           5.2908   -0.4272    0.0000 H       1  UNL1        0.0397
     17 H           5.7227   -1.7429    0.0000 H       1  UNL1        0.0277
     18 H           5.7227   -0.9134    0.0000 H       1  UNL1        0.0277
     19 H           4.4272   -2.6998    0.0000 H       1  UNL1        0.0314
     20 H           5.2156   -2.4421    0.0000 H       1  UNL1        0.0314
     21 H           2.8660    0.2919    0.0000 H       1  UNL1        0.0621
     22 H           2.8660   -2.9482    0.0000 H       1  UNL1        0.0620
     23 H           6.3815    0.1719    0.0000 H       1  UNL1        0.0620
     24 H           3.7144    1.0436    0.0000 H       1  UNL1        0.0620
     25 H           1.4631   -0.5181    0.0000 H       1  UNL1        0.0618
     26 H           1.4631   -2.1382    0.0000 H       1  UNL1        0.0618
     27 H           6.8848    1.7117    0.0000 H       1  UNL1        0.0618
     28 H           4.2177    2.5834    0.0000 H       1  UNL1        0.0618
     29 H           5.8029    2.9175    0.0000 H       1  UNL1        0.0618
@<TRIPOS>BOND
     1     1     2    1
     2     1     4    1
     3     1     6    1
     4     1    16    1
     5     2     3    1
     6     2    17    1
     7     2    18    1
     8     3     5    1
     9     3    19    1
    10     3    20    1
    11     4     5   ar
    12     4     7   ar
    13     5     8   ar
    14     6     9   ar
    15     6    10   ar
    16     7    11   ar
    17     7    21    1
    18     8    12   ar
    19     8    22    1
    20     9    13   ar
    21     9    23    1
    22    10    14   ar
    23    10    24    1
    24    11    12   ar
    25    11    25    1
    26    12    26    1
    27    13    15   ar
    28    13    27    1
    29    14    15   ar
    30    14    28    1
    31    15    29    1
