@<TRIPOS>MOLECULE
IMPHY007562
 174 182 0 0 0
SMALL
GASTEIGER

@<TRIPOS>ATOM
      1 O           6.8671   -5.7722    0.0000 O.3     1  UNL1       -0.3448
      2 O           8.6424    3.5822    0.0000 O.3     1  UNL1       -0.3423
      3 O           6.8270    4.6211    0.0000 O.3     1  UNL1       -0.3887
      4 O           9.3112   -5.0806    0.0000 O.3     1  UNL1       -0.3944
      5 O           5.1350   -5.7722    0.0000 O.3     1  UNL1       -0.3315
      6 O           7.7764    5.0822    0.0000 O.3     1  UNL1       -0.3461
      7 O           6.8671   -7.7722    0.0000 O.3     1  UNL1       -0.3378
      8 O          10.3745    4.5822    0.0000 O.3     1  UNL1       -0.3841
      9 O           5.1350   -8.7722    0.0000 O.3     1  UNL1       -0.3864
     10 O          10.3745    6.5822    0.0000 O.3     1  UNL1       -0.3391
     11 O           3.4030   -7.7722    0.0000 O.3     1  UNL1       -0.3860
     12 O           8.6424    7.5822    0.0000 O.3     1  UNL1       -0.3868
     13 O           6.0010   -9.2722    0.0000 O.3     1  UNL1       -0.3405
     14 O           2.5369   -6.2722    0.0000 O.3     1  UNL1       -0.4788
     15 O           3.4030   -4.7722    0.0000 O.2     1  UNL1       -0.2480
     16 O           9.5085    8.0822    0.0000 O.3     1  UNL1       -0.3440
     17 O           8.5991   -8.7722    0.0000 O.3     1  UNL1       -0.3841
     18 O           8.5991  -10.7723    0.0000 O.3     1  UNL1       -0.3864
     19 O          12.1066    7.5822    0.0000 O.3     1  UNL1       -0.4525
     20 O           6.8671  -11.7723    0.0000 O.3     1  UNL1       -0.3865
     21 O          12.1066    9.5822    0.0000 O.3     1  UNL1       -0.4537
     22 O          10.3745   10.5823    0.0000 O.3     1  UNL1       -0.4553
     23 O           5.1350  -11.7723    0.0000 O.3     1  UNL1       -0.3924
     24 O          12.9726    9.0822    0.0000 O.2     1  UNL1       -0.2512
     25 O          11.2405   11.0823    0.0000 O.2     1  UNL1       -0.2512
     26 O           8.6424   10.5823    0.0000 O.2     1  UNL1       -0.2512
     27 C           7.7681   -1.0720    0.0000 C.3     1  UNL1       -0.0194
     28 C           6.9040   -1.5754    0.0000 C.3     1  UNL1       -0.0257
     29 C           6.8920   -2.6169    0.0000 C.3     1  UNL1       -0.0249
     30 C           7.7643   -0.0720    0.0000 C.3     1  UNL1       -0.0051
     31 C           7.7920   -3.1412    0.0000 C.3     1  UNL1       -0.0255
     32 C           8.6801   -1.5754    0.0000 C.3     1  UNL1       -0.0463
     33 C           6.8963    0.4246    0.0000 C.2     1  UNL1       -0.0633
     34 C           6.8762    1.4661    0.0000 C.3     1  UNL1       -0.0110
     35 C           8.6921   -2.6169    0.0000 C.3     1  UNL1       -0.0485
     36 C           7.8046   -4.2261    0.0000 C.3     1  UNL1        0.0206
     37 C           7.7722    1.9973    0.0000 C.3     1  UNL1        0.0033
     38 C           8.6723    0.4383    0.0000 C.3     1  UNL1       -0.0428
     39 C           6.0361   -1.0787    0.0000 C.3     1  UNL1       -0.0306
     40 C           5.9421   -3.1412    0.0000 C.3     1  UNL1       -0.0447
     41 C           8.6763    1.4799    0.0000 C.3     1  UNL1       -0.0438
     42 C           8.7522   -0.8946    0.0000 C.3     1  UNL1       -0.0585
     43 C           6.8671   -4.7722    0.0000 C.3     1  UNL1        0.0695
     44 C           6.0322   -0.0787    0.0000 C.2     1  UNL1       -0.0836
     45 C           6.0279   -2.1136    0.0000 C.3     1  UNL1       -0.0590
     46 C           5.9295   -4.2261    0.0000 C.3     1  UNL1       -0.0254
     47 C           8.7497   -0.2419    0.0000 C.3     1  UNL1       -0.0553
     48 C           5.9223    1.9830    0.0000 C.3     1  UNL1       -0.0383
     49 C           7.7764    3.0822    0.0000 C.3     1  UNL1        0.0940
     50 C           5.9014    3.0678    0.0000 C.3     1  UNL1       -0.0059
     51 C           6.8347    3.6211    0.0000 C.3     1  UNL1        0.0870
     52 C           8.8046   -4.2184    0.0000 C.3     1  UNL1        0.0522
     53 C           8.3113   -5.0883    0.0000 C.3     1  UNL1       -0.0548
     54 C           8.6324    2.5072    0.0000 C.3     1  UNL1       -0.0566
     55 C           4.9015    3.0524    0.0000 C.3     1  UNL1       -0.0574
     56 C           5.3881    3.9260    0.0000 C.3     1  UNL1       -0.0574
     57 C           6.0010   -6.2722    0.0000 C.3     1  UNL1        0.1892
     58 C           8.6424    4.5822    0.0000 C.3     1  UNL1        0.1879
     59 C           6.0010   -7.2722    0.0000 C.3     1  UNL1        0.1407
     60 C           9.5085    5.0822    0.0000 C.3     1  UNL1        0.1345
     61 C           5.1350   -7.7722    0.0000 C.3     1  UNL1        0.1149
     62 C           9.5085    6.0822    0.0000 C.3     1  UNL1        0.1203
     63 C           4.2690   -6.2722    0.0000 C.3     1  UNL1        0.1859
     64 C           4.2690   -7.2722    0.0000 C.3     1  UNL1        0.1202
     65 C           7.7764    6.0822    0.0000 C.3     1  UNL1        0.0792
     66 C           8.6424    6.5822    0.0000 C.3     1  UNL1        0.1073
     67 C           6.8671   -8.7722    0.0000 C.3     1  UNL1        0.1885
     68 C           3.4030   -5.7722    0.0000 C.2     1  UNL1        0.3367
     69 C           7.7331   -9.2722    0.0000 C.3     1  UNL1        0.1341
     70 C          10.3745    7.5822    0.0000 C.3     1  UNL1        0.2005
     71 C           7.7331  -10.2723    0.0000 C.3     1  UNL1        0.1141
     72 C          11.2405    8.0822    0.0000 C.3     1  UNL1        0.1936
     73 C           6.0010  -10.2723    0.0000 C.3     1  UNL1        0.1130
     74 C           6.8671  -10.7723    0.0000 C.3     1  UNL1        0.1119
     75 C          11.2405    9.0822    0.0000 C.3     1  UNL1        0.1832
     76 C           9.5085    9.0822    0.0000 C.3     1  UNL1        0.0914
     77 C          10.3745    9.5822    0.0000 C.3     1  UNL1        0.1666
     78 C           5.1350  -10.7723    0.0000 C.3     1  UNL1        0.0730
     79 C          12.9726    8.0822    0.0000 C.2     1  UNL1        0.3045
     80 C          12.1066   10.5823    0.0000 C.2     1  UNL1        0.3044
     81 C           9.5085   11.0823    0.0000 C.2     1  UNL1        0.3044
     82 C          13.8386    7.5822    0.0000 C.3     1  UNL1        0.0332
     83 C          12.9726   11.0823    0.0000 C.3     1  UNL1        0.0332
     84 C           9.5085   12.0823    0.0000 C.3     1  UNL1        0.0332
     85 H           7.4398   -1.8874    0.0000 H       1  UNL1        0.0315
     86 H           8.3314   -3.4471    0.0000 H       1  UNL1        0.0313
     87 H           9.2921   -1.6744    0.0000 H       1  UNL1        0.0271
     88 H           8.8824   -0.9893    0.0000 H       1  UNL1        0.0271
     89 H           6.3466    1.1437    0.0000 H       1  UNL1        0.0352
     90 H           8.9079   -3.1982    0.0000 H       1  UNL1        0.0268
     91 H           9.3017   -2.5038    0.0000 H       1  UNL1        0.0268
     92 H           8.8791   -0.1462    0.0000 H       1  UNL1        0.0274
     93 H           9.2836    0.5420    0.0000 H       1  UNL1        0.0274
     94 H           5.4251   -0.9734    0.0000 H       1  UNL1        0.0310
     95 H           5.8263   -1.6621    0.0000 H       1  UNL1        0.0310
     96 H           5.7398   -2.5551    0.0000 H       1  UNL1        0.0271
     97 H           5.3300   -3.2402    0.0000 H       1  UNL1        0.0271
     98 H           9.2868    1.3715    0.0000 H       1  UNL1        0.0272
     99 H           8.8876    2.0628    0.0000 H       1  UNL1        0.0272
    100 H           8.8623   -1.5048    0.0000 H       1  UNL1        0.0235
    101 H           9.3624   -0.7846    0.0000 H       1  UNL1        0.0235
    102 H           8.6422   -0.2844    0.0000 H       1  UNL1        0.0235
    103 H           7.4046   -5.0812    0.0000 H       1  UNL1        0.0603
    104 H           5.4941    0.2292    0.0000 H       1  UNL1        0.0572
    105 H           6.3400   -1.5779    0.0000 H       1  UNL1        0.0235
    106 H           5.4922   -1.8015    0.0000 H       1  UNL1        0.0235
    107 H           5.7158   -2.6493    0.0000 H       1  UNL1        0.0235
    108 H           5.3199   -4.1130    0.0000 H       1  UNL1        0.0290
    109 H           5.7137   -4.8074    0.0000 H       1  UNL1        0.0290
    110 H           8.6444   -0.8529    0.0000 H       1  UNL1        0.0238
    111 H           9.3607   -0.3472    0.0000 H       1  UNL1        0.0238
    112 H           8.8550    0.3691    0.0000 H       1  UNL1        0.0238
    113 H           5.3095    2.0773    0.0000 H       1  UNL1        0.0277
    114 H           5.7246    1.3954    0.0000 H       1  UNL1        0.0277
    115 H           8.3128    2.7712    0.0000 H       1  UNL1        0.0629
    116 H           7.3698    3.9342    0.0000 H       1  UNL1        0.0625
    117 H           9.3855   -4.0019    0.0000 H       1  UNL1        0.0563
    118 H           8.6922   -3.6087    0.0000 H       1  UNL1        0.0563
    119 H           7.7767   -5.4024    0.0000 H       1  UNL1        0.0237
    120 H           8.6254   -5.6228    0.0000 H       1  UNL1        0.0237
    121 H           8.8458   -4.7742    0.0000 H       1  UNL1        0.0237
    122 H           8.9486    1.9739    0.0000 H       1  UNL1        0.0236
    123 H           9.1657    2.8234    0.0000 H       1  UNL1        0.0236
    124 H           8.3162    3.0406    0.0000 H       1  UNL1        0.0236
    125 H           5.9202    4.2442    0.0000 H       1  UNL1        0.0236
    126 H           5.0699    4.4581    0.0000 H       1  UNL1        0.0236
    127 H           4.8560    3.6078    0.0000 H       1  UNL1        0.0236
    128 H           4.8920    3.6723    0.0000 H       1  UNL1        0.0236
    129 H           4.2816    3.0428    0.0000 H       1  UNL1        0.0236
    130 H           4.9111    2.4325    0.0000 H       1  UNL1        0.0236
    131 H           6.2877    4.9270    0.0000 H       1  UNL1        0.2099
    132 H           6.0010   -5.6523    0.0000 H       1  UNL1        0.0938
    133 H           9.9312   -5.0758    0.0000 H       1  UNL1        0.2094
    134 H           8.1055    4.2722    0.0000 H       1  UNL1        0.0937
    135 H           6.0010   -7.8922    0.0000 H       1  UNL1        0.0675
    136 H          10.0454    5.3922    0.0000 H       1  UNL1        0.0671
    137 H           4.5981   -8.0822    0.0000 H       1  UNL1        0.0648
    138 H           9.5085    6.7022    0.0000 H       1  UNL1        0.0651
    139 H           4.2690   -5.6523    0.0000 H       1  UNL1        0.0741
    140 H           3.7320   -6.9622    0.0000 H       1  UNL1        0.0652
    141 H           7.5644    6.6649    0.0000 H       1  UNL1        0.0587
    142 H           7.1658    5.9746    0.0000 H       1  UNL1        0.0587
    143 H           8.1055    6.8922    0.0000 H       1  UNL1        0.0643
    144 H          10.9114    4.8922    0.0000 H       1  UNL1        0.2101
    145 H           7.4040   -8.4622    0.0000 H       1  UNL1        0.0938
    146 H           4.5981   -9.0822    0.0000 H       1  UNL1        0.2100
    147 H           3.4030   -8.3922    0.0000 H       1  UNL1        0.2100
    148 H           8.1055    7.8922    0.0000 H       1  UNL1        0.2100
    149 H           8.2700   -9.5822    0.0000 H       1  UNL1        0.0671
    150 H           9.8376    7.2722    0.0000 H       1  UNL1        0.0950
    151 H           7.7331  -10.8923    0.0000 H       1  UNL1        0.0648
    152 H          11.7775    8.3922    0.0000 H       1  UNL1        0.0825
    153 H           5.4641   -9.9622    0.0000 H       1  UNL1        0.0647
    154 H           2.0000   -5.9622    0.0000 H       1  UNL1        0.2951
    155 H           6.3301  -11.0823    0.0000 H       1  UNL1        0.0647
    156 H          11.2405    9.7022    0.0000 H       1  UNL1        0.0812
    157 H           9.1360   -9.0822    0.0000 H       1  UNL1        0.2101
    158 H           9.2964    9.6649    0.0000 H       1  UNL1        0.0599
    159 H           8.8979    8.9746    0.0000 H       1  UNL1        0.0599
    160 H           9.8376    9.8922    0.0000 H       1  UNL1        0.0796
    161 H           4.9230  -10.1896    0.0000 H       1  UNL1        0.0584
    162 H           4.5244  -10.8799    0.0000 H       1  UNL1        0.0584
    163 H           8.5991  -11.3923    0.0000 H       1  UNL1        0.2100
    164 H           7.4040  -12.0823    0.0000 H       1  UNL1        0.2100
    165 H           4.5981  -12.0823    0.0000 H       1  UNL1        0.2095
    166 H          13.5286    7.0453    0.0000 H       1  UNL1        0.0342
    167 H          14.3755    7.2722    0.0000 H       1  UNL1        0.0342
    168 H          14.1486    8.1192    0.0000 H       1  UNL1        0.0342
    169 H          13.2826   10.5453    0.0000 H       1  UNL1        0.0342
    170 H          13.5095   11.3923    0.0000 H       1  UNL1        0.0342
    171 H          12.6626   11.6192    0.0000 H       1  UNL1        0.0342
    172 H          10.1285   12.0823    0.0000 H       1  UNL1        0.0342
    173 H           9.5085   12.7023    0.0000 H       1  UNL1        0.0342
    174 H           8.8885   12.0823    0.0000 H       1  UNL1        0.0342
@<TRIPOS>BOND
     1     1    43    1
     2     1    57    1
     3     2    49    1
     4     2    58    1
     5     3    51    1
     6     3   131    1
     7     4    52    1
     8     4   133    1
     9     5    57    1
    10     5    63    1
    11     6    58    1
    12     6    65    1
    13     7    59    1
    14     7    67    1
    15     8    60    1
    16     8   144    1
    17     9    61    1
    18     9   146    1
    19    10    62    1
    20    10    70    1
    21    11    64    1
    22    11   147    1
    23    12    66    1
    24    12   148    1
    25    13    67    1
    26    13    73    1
    27    14    68    1
    28    14   154    1
    29    15    68    2
    30    16    70    1
    31    16    76    1
    32    17    69    1
    33    17   157    1
    34    18    71    1
    35    18   163    1
    36    19    72    1
    37    19    79    1
    38    20    74    1
    39    20   164    1
    40    21    75    1
    41    21    80    1
    42    22    77    1
    43    22    81    1
    44    23    78    1
    45    23   165    1
    46    24    79    2
    47    25    80    2
    48    26    81    2
    49    27    28    1
    50    27    30    1
    51    27    32    1
    52    27    42    1
    53    28    29    1
    54    28    39    1
    55    28    85    1
    56    29    31    1
    57    29    40    1
    58    29    45    1
    59    30    33    1
    60    30    38    1
    61    30    47    1
    62    31    35    1
    63    31    36    1
    64    31    86    1
    65    32    35    1
    66    32    87    1
    67    32    88    1
    68    33    34    1
    69    33    44    2
    70    34    37    1
    71    34    48    1
    72    34    89    1
    73    35    90    1
    74    35    91    1
    75    36    43    1
    76    36    52    1
    77    36    53    1
    78    37    41    1
    79    37    49    1
    80    37    54    1
    81    38    41    1
    82    38    92    1
    83    38    93    1
    84    39    44    1
    85    39    94    1
    86    39    95    1
    87    40    46    1
    88    40    96    1
    89    40    97    1
    90    41    98    1
    91    41    99    1
    92    42   100    1
    93    42   101    1
    94    42   102    1
    95    43    46    1
    96    43   103    1
    97    44   104    1
    98    45   105    1
    99    45   106    1
   100    45   107    1
   101    46   108    1
   102    46   109    1
   103    47   110    1
   104    47   111    1
   105    47   112    1
   106    48    50    1
   107    48   113    1
   108    48   114    1
   109    49    51    1
   110    49   115    1
   111    50    51    1
   112    50    55    1
   113    50    56    1
   114    51   116    1
   115    52   117    1
   116    52   118    1
   117    53   119    1
   118    53   120    1
   119    53   121    1
   120    54   122    1
   121    54   123    1
   122    54   124    1
   123    55   128    1
   124    55   129    1
   125    55   130    1
   126    56   125    1
   127    56   126    1
   128    56   127    1
   129    57    59    1
   130    57   132    1
   131    58    60    1
   132    58   134    1
   133    59    61    1
   134    59   135    1
   135    60    62    1
   136    60   136    1
   137    61    64    1
   138    61   137    1
   139    62    66    1
   140    62   138    1
   141    63    64    1
   142    63    68    1
   143    63   139    1
   144    64   140    1
   145    65    66    1
   146    65   141    1
   147    65   142    1
   148    66   143    1
   149    67    69    1
   150    67   145    1
   151    69    71    1
   152    69   149    1
   153    70    72    1
   154    70   150    1
   155    71    74    1
   156    71   151    1
   157    72    75    1
   158    72   152    1
   159    73    74    1
   160    73    78    1
   161    73   153    1
   162    74   155    1
   163    75    77    1
   164    75   156    1
   165    76    77    1
   166    76   158    1
   167    76   159    1
   168    77   160    1
   169    78   161    1
   170    78   162    1
   171    79    82    1
   172    80    83    1
   173    81    84    1
   174    82   166    1
   175    82   167    1
   176    82   168    1
   177    83   169    1
   178    83   170    1
   179    83   171    1
   180    84   172    1
   181    84   173    1
   182    84   174    1
