@<TRIPOS>MOLECULE
IMPHY016264
 25 24 0 0 0
SMALL
GASTEIGER

@<TRIPOS>ATOM
      1 O           9.7942    0.4400    0.0000 O.2     1  UNL1       -0.3010
      2 O           2.0000   -0.0600    0.0000 O.2     1  UNL1       -0.2961
      3 C           6.3301    0.4400    0.0000 C.3     1  UNL1       -0.0492
      4 C           7.1962   -0.0600    0.0000 C.3     1  UNL1       -0.0464
      5 C           5.4641   -0.0600    0.0000 C.3     1  UNL1       -0.0341
      6 C           8.0622    0.4400    0.0000 C.3     1  UNL1        0.0028
      7 C           4.5981    0.4400    0.0000 C.2     1  UNL1       -0.0781
      8 C           3.7320   -0.0600    0.0000 C.2     1  UNL1       -0.0152
      9 C           8.9282   -0.0600    0.0000 C.2     1  UNL1        0.1203
     10 C           3.7320   -1.0600    0.0000 C.3     1  UNL1       -0.0370
     11 C           2.8660    0.4400    0.0000 C.2     1  UNL1        0.1457
     12 H           6.7287    0.9149    0.0000 H       1  UNL1        0.0268
     13 H           5.9316    0.9149    0.0000 H       1  UNL1        0.0268
     14 H           6.7976   -0.5349    0.0000 H       1  UNL1        0.0269
     15 H           7.5947   -0.5349    0.0000 H       1  UNL1        0.0269
     16 H           5.0656   -0.5349    0.0000 H       1  UNL1        0.0308
     17 H           5.8626   -0.5349    0.0000 H       1  UNL1        0.0308
     18 H           8.4607    0.9149    0.0000 H       1  UNL1        0.0339
     19 H           7.6636    0.9149    0.0000 H       1  UNL1        0.0339
     20 H           4.5981    1.0600    0.0000 H       1  UNL1        0.0576
     21 H           8.9282   -0.6800    0.0000 H       1  UNL1        0.1026
     22 H           3.1120   -1.0600    0.0000 H       1  UNL1        0.0278
     23 H           3.7320   -1.6800    0.0000 H       1  UNL1        0.0278
     24 H           4.3520   -1.0600    0.0000 H       1  UNL1        0.0278
     25 H           2.8660    1.0600    0.0000 H       1  UNL1        0.1078
@<TRIPOS>BOND
     1     1     9    2
     2     2    11    2
     3     3     4    1
     4     3     5    1
     5     3    12    1
     6     3    13    1
     7     4     6    1
     8     4    14    1
     9     4    15    1
    10     5     7    1
    11     5    16    1
    12     5    17    1
    13     6     9    1
    14     6    18    1
    15     6    19    1
    16     7     8    2
    17     7    20    1
    18     8    10    1
    19     8    11    1
    20     9    21    1
    21    10    22    1
    22    10    23    1
    23    10    24    1
    24    11    25    1
