@<TRIPOS>MOLECULE
IMPHY010340
 26 25 0 0 0
SMALL
GASTEIGER

@<TRIPOS>ATOM
      1 C           0.4062   -1.0345    0.0000 C.3     1  UNL1        0.0000
      2 C           0.4062   -1.8596    0.0000 C.3     1  UNL1        0.0000
      3 C          -0.3083   -0.6220    0.0000 C.3     1  UNL1        0.0000
      4 C          -0.3083   -2.2721    0.0000 C.3     1  UNL1        0.0000
      5 C          -1.0228   -1.0345    0.0000 C.3     1  UNL1        0.0000
      6 C          -1.0228   -1.8596    0.0000 C.3     1  UNL1        0.0000
      7 C           1.1207   -0.6221    0.0000 C.3     1  UNL1        0.0000
      8 C           1.8352   -1.0347    0.0000 C.3     1  UNL1        0.0006
      9 C           1.1206   -2.2721    0.0000 C.3     1  UNL1        0.0000
     10 C           1.8351   -1.8596    0.0000 C.3     1  UNL1        0.0000
     11 C           2.5496   -0.6222    0.0000 C.3     1  UNL1        0.0116
     12 C           3.2639   -1.0348    0.0000 C.3     1  UNL1        0.1096
     13 C           2.5495   -2.2721    0.0000 C.3     1  UNL1        0.0000
     14 C           3.2639   -1.8597    0.0000 C.3     1  UNL1        0.0000
     15 C           3.9785   -0.6224    0.0000 C.2     1  UNL1        0.3170
     16 C           3.9783   -2.2723    0.0000 C.3     1  UNL1        0.0000
     17 O           4.6929   -1.0350    0.0000 O.3     1  UNL1       -0.4485
     18 O           3.9786    0.2026    0.0000 O.2     1  UNL1       -0.2501
     19 C           5.4074   -0.6225    0.0000 C.3     1  UNL1        0.2084
     20 C           6.1219   -1.0352    0.0000 C.3     1  UNL1        0.0474
     21 C           6.8364   -0.6227    0.0000 C.3     1  UNL1        0.0038
     22 C           6.1218   -1.8601    0.0000 C.3     1  UNL1        0.0000
     23 C           6.8363   -2.2726    0.0000 C.3     1  UNL1        0.0000
     24 C           7.5508   -1.0353    0.0000 C.3     1  UNL1        0.0001
     25 C           7.5507   -1.8602    0.0000 C.3     1  UNL1        0.0000
     26 C           5.4074   -2.2726    0.0000 C.3     1  UNL1        0.0000
@<TRIPOS>BOND
     1     3     1    1
     2     4     2    1
     3     5     3    1
     4     6     4    1
     5     6     5    1
     6     7     1    1
     7     8     7    1
     8     9     2    1
     9    10     9    1
    10    11     8    1
    11    12    11    1
    12    12    15    1
    13    13    10    1
    14    14    13    1
    15    14    16    1
    16    15    17    1
    17    15    18    2
    18    17    19    1
    19    20    19    1
    20    21    20    1
    21    22    26    1
    22    23    22    1
    23    24    21    1
    24    24    25    1
    25    25    23    1
