@<TRIPOS>MOLECULE
IMPHY008405
 34 36 0 0 0
SMALL
GASTEIGER

@<TRIPOS>ATOM
      1 O           6.4144    1.9377    0.0000 O.3     1  UNL1       -0.4939
      2 O           8.1962   -1.1211    0.0000 O.3     1  UNL1       -0.5063
      3 O           4.6660    1.9031    0.0000 O.2     1  UNL1       -0.2865
      4 O           4.6660   -2.0969    0.0000 O.2     1  UNL1       -0.2865
      5 O           2.9176   -2.1315    0.0000 O.3     1  UNL1       -0.5060
      6 O           9.0641    0.4306    0.0000 O.3     1  UNL1       -0.3902
      7 C           5.5321    0.4031    0.0000 C.ar    1  UNL1        0.0752
      8 C           5.5321   -0.5969    0.0000 C.ar    1  UNL1        0.0402
      9 C           3.8000   -0.5969    0.0000 C.ar    1  UNL1        0.0744
     10 C           3.8000    0.4031    0.0000 C.ar    1  UNL1        0.0367
     11 C           6.4260    0.9378    0.0000 C.ar    1  UNL1        0.1404
     12 C           4.6660    0.9031    0.0000 C.2     1  UNL1        0.1981
     13 C           4.6660   -1.0969    0.0000 C.2     1  UNL1        0.1982
     14 C           7.3321    0.4239    0.0000 C.ar    1  UNL1        0.0614
     15 C           6.4260   -1.1316    0.0000 C.ar    1  UNL1       -0.0081
     16 C           7.3321   -0.6177    0.0000 C.ar    1  UNL1        0.1264
     17 C           2.9061   -1.1316    0.0000 C.ar    1  UNL1        0.1283
     18 C           2.9061    0.9378    0.0000 C.ar    1  UNL1       -0.0500
     19 C           8.1962    0.9273    0.0000 C.3     1  UNL1        0.0762
     20 C           2.0000   -0.6177    0.0000 C.ar    1  UNL1       -0.0194
     21 C           2.0000    0.4239    0.0000 C.ar    1  UNL1       -0.0576
     22 C           7.2746    2.4477    0.0000 C.3     1  UNL1        0.0788
     23 H           6.4188   -1.7515    0.0000 H       1  UNL1        0.0661
     24 H           2.9132    1.5577    0.0000 H       1  UNL1        0.0625
     25 H           8.5929    1.4037    0.0000 H       1  UNL1        0.0609
     26 H           7.7958    1.4007    0.0000 H       1  UNL1        0.0609
     27 H           1.4643   -0.9298    0.0000 H       1  UNL1        0.0654
     28 H           1.4643    0.7360    0.0000 H       1  UNL1        0.0619
     29 H           8.1938   -1.7410    0.0000 H       1  UNL1        0.2921
     30 H           7.5908    1.9144    0.0000 H       1  UNL1        0.0660
     31 H           7.8079    2.7639    0.0000 H       1  UNL1        0.0660
     32 H           6.9584    2.9810    0.0000 H       1  UNL1        0.0660
     33 H           2.3843   -2.4477    0.0000 H       1  UNL1        0.2922
     34 H           9.5998    0.7427    0.0000 H       1  UNL1        0.2099
@<TRIPOS>BOND
     1     1    11    1
     2     1    22    1
     3     2    16    1
     4     2    29    1
     5     3    12    2
     6     4    13    2
     7     5    17    1
     8     5    33    1
     9     6    19    1
    10     6    34    1
    11     7     8   ar
    12     7    11   ar
    13     7    12    1
    14     8    13    1
    15     8    15   ar
    16     9    10   ar
    17     9    13    1
    18     9    17   ar
    19    10    12    1
    20    10    18   ar
    21    11    14   ar
    22    14    16   ar
    23    14    19    1
    24    15    16   ar
    25    15    23    1
    26    17    20   ar
    27    18    21   ar
    28    18    24    1
    29    19    25    1
    30    19    26    1
    31    20    21   ar
    32    20    27    1
    33    21    28    1
    34    22    30    1
    35    22    31    1
    36    22    32    1
