@<TRIPOS>MOLECULE
IMPHY017937
 11 12 0 0 0
SMALL
GASTEIGER

@<TRIPOS>ATOM
      1 O           3.2756   -2.2516    0.0000 O.2     1  UNL1       -0.2835
      2 C           3.8665    0.7516    0.0000 C.3     1  UNL1        0.0082
      3 C           3.8665   -0.2484    0.0000 C.3     1  UNL1        0.0256
      4 C           4.7331    0.2516    0.0000 C.3     1  UNL1        0.0051
      5 C           2.9155    1.0606    0.0000 C.3     1  UNL1        0.0261
      6 C           3.8665    1.7516    0.0000 C.3     1  UNL1        0.0006
      7 C           2.9155   -0.5574    0.0000 C.2     1  UNL1        0.0154
      8 C           2.3277    0.2516    0.0000 C.2     1  UNL1       -0.0271
      9 C           3.0005    2.2516    0.0000 C.3     1  UNL1        0.0000
     10 C           4.7326    2.2516    0.0000 C.3     1  UNL1        0.0000
     11 C           2.6065   -1.5085    0.0000 C.2     1  UNL1        0.2296
@<TRIPOS>BOND
     1     1    11    2
     2     2     3    1
     3     2     4    1
     4     2     5    1
     5     2     6    1
     6     3     4    1
     7     3     7    1
     8     5     8    1
     9     6     9    1
    10     6    10    1
    11     7     8    2
    12     7    11    1
