@<TRIPOS>MOLECULE
IMPHY017379
 32 31 0 0 0
SMALL
GASTEIGER

@<TRIPOS>ATOM
      1 O           9.7942   -2.0600    0.0000 O.2     1  UNL1       -0.3010
      2 C           4.5981    0.9400    0.0000 C.3     1  UNL1       -0.0528
      3 C           5.4641    1.4400    0.0000 C.3     1  UNL1       -0.0496
      4 C           3.7320    1.4400    0.0000 C.3     1  UNL1       -0.0533
      5 C           6.3301    0.9400    0.0000 C.3     1  UNL1       -0.0348
      6 C           2.8660    0.9400    0.0000 C.3     1  UNL1       -0.0559
      7 C           7.1962    1.4400    0.0000 C.2     1  UNL1       -0.0879
      8 C           2.0000    1.4400    0.0000 C.3     1  UNL1       -0.0653
      9 C           8.0622    0.9400    0.0000 C.2     1  UNL1       -0.0875
     10 C           8.0622   -0.0600    0.0000 C.3     1  UNL1       -0.0284
     11 C           8.9282   -0.5600    0.0000 C.3     1  UNL1        0.0062
     12 C           8.9282   -1.5600    0.0000 C.2     1  UNL1        0.1206
     13 H           4.1996    0.4651    0.0000 H       1  UNL1        0.0265
     14 H           4.9966    0.4651    0.0000 H       1  UNL1        0.0265
     15 H           5.8626    1.9150    0.0000 H       1  UNL1        0.0268
     16 H           5.0656    1.9150    0.0000 H       1  UNL1        0.0268
     17 H           4.1306    1.9150    0.0000 H       1  UNL1        0.0265
     18 H           3.3335    1.9150    0.0000 H       1  UNL1        0.0265
     19 H           5.9316    0.4651    0.0000 H       1  UNL1        0.0307
     20 H           6.7287    0.4651    0.0000 H       1  UNL1        0.0307
     21 H           2.4675    0.4651    0.0000 H       1  UNL1        0.0263
     22 H           3.2646    0.4651    0.0000 H       1  UNL1        0.0263
     23 H           7.1962    2.0600    0.0000 H       1  UNL1        0.0569
     24 H           2.3100    1.9769    0.0000 H       1  UNL1        0.0230
     25 H           1.4631    1.7500    0.0000 H       1  UNL1        0.0230
     26 H           1.6900    0.9031    0.0000 H       1  UNL1        0.0230
     27 H           8.5991    1.2500    0.0000 H       1  UNL1        0.0569
     28 H           7.4516    0.0477    0.0000 H       1  UNL1        0.0311
     29 H           7.8501   -0.6426    0.0000 H       1  UNL1        0.0311
     30 H           9.5388   -0.6677    0.0000 H       1  UNL1        0.0342
     31 H           9.1403    0.0226    0.0000 H       1  UNL1        0.0342
     32 H           8.3913   -1.8700    0.0000 H       1  UNL1        0.1026
@<TRIPOS>BOND
     1     1    12    2
     2     2     3    1
     3     2     4    1
     4     2    13    1
     5     2    14    1
     6     3     5    1
     7     3    15    1
     8     3    16    1
     9     4     6    1
    10     4    17    1
    11     4    18    1
    12     5     7    1
    13     5    19    1
    14     5    20    1
    15     6     8    1
    16     6    21    1
    17     6    22    1
    18     7     9    2
    19     7    23    1
    20     8    24    1
    21     8    25    1
    22     8    26    1
    23     9    10    1
    24     9    27    1
    25    10    11    1
    26    10    28    1
    27    10    29    1
    28    11    12    1
    29    11    30    1
    30    11    31    1
    31    12    32    1
