@<TRIPOS>MOLECULE
IMPHY006750
 36 38 0 0 0
SMALL
GASTEIGER

@<TRIPOS>ATOM
      1 O           6.0682   -0.2704    0.0000 O.3     1  UNL1       -0.4828
      2 O           6.0682    2.7296    0.0000 O.2     1  UNL1       -0.2917
      3 O           4.3198    2.7642    0.0000 O.3     1  UNL1       -0.5058
      4 O          10.3984   -1.7704    0.0000 O.3     1  UNL1       -0.4915
      5 O           8.6663   -2.7704    0.0000 O.3     1  UNL1       -0.5033
      6 O           2.5381   -0.2945    0.0000 O.3     1  UNL1       -0.5065
      7 C           6.9343    0.2296    0.0000 C.3     1  UNL1        0.1323
      8 C           6.9343    1.2296    0.0000 C.3     1  UNL1        0.0520
      9 C           7.8003   -0.2704    0.0000 C.ar    1  UNL1       -0.0033
     10 C           5.2022    1.2296    0.0000 C.ar    1  UNL1        0.1007
     11 C           6.0682    1.7296    0.0000 C.2     1  UNL1        0.1740
     12 C           5.2022    0.2296    0.0000 C.ar    1  UNL1        0.1389
     13 C           7.8003   -1.2704    0.0000 C.ar    1  UNL1       -0.0098
     14 C           8.6663    0.2296    0.0000 C.ar    1  UNL1       -0.0514
     15 C           4.3083    1.7643    0.0000 C.ar    1  UNL1        0.1343
     16 C           4.3083   -0.3051    0.0000 C.ar    1  UNL1        0.0225
     17 C           8.6663   -1.7704    0.0000 C.ar    1  UNL1        0.1588
     18 C           3.4022    1.2504    0.0000 C.ar    1  UNL1        0.0222
     19 C           3.4022    0.2088    0.0000 C.ar    1  UNL1        0.1238
     20 C           9.5323   -0.2704    0.0000 C.ar    1  UNL1       -0.0159
     21 C           9.5323   -1.2704    0.0000 C.ar    1  UNL1        0.1613
     22 C          11.2644   -1.2704    0.0000 C.3     1  UNL1        0.0790
     23 H           6.9343   -0.3904    0.0000 H       1  UNL1        0.0789
     24 H           7.5449    1.1220    0.0000 H       1  UNL1        0.0385
     25 H           7.1463    1.8122    0.0000 H       1  UNL1        0.0385
     26 H           7.2634   -1.5804    0.0000 H       1  UNL1        0.0659
     27 H           8.6663    0.8496    0.0000 H       1  UNL1        0.0623
     28 H           4.3154   -0.9250    0.0000 H       1  UNL1        0.0691
     29 H           2.8665    1.5625    0.0000 H       1  UNL1        0.0691
     30 H          10.0693    0.0396    0.0000 H       1  UNL1        0.0655
     31 H           3.7865    3.0804    0.0000 H       1  UNL1        0.2922
     32 H           8.1294   -3.0804    0.0000 H       1  UNL1        0.2923
     33 H           2.0000    0.0134    0.0000 H       1  UNL1        0.2921
     34 H          11.5744   -1.8073    0.0000 H       1  UNL1        0.0660
     35 H          11.8013   -0.9604    0.0000 H       1  UNL1        0.0660
     36 H          10.9544   -0.7335    0.0000 H       1  UNL1        0.0660
@<TRIPOS>BOND
     1     1     7    1
     2     1    12    1
     3     2    11    2
     4     3    15    1
     5     3    31    1
     6     4    21    1
     7     4    22    1
     8     5    17    1
     9     5    32    1
    10     6    19    1
    11     6    33    1
    12     7     8    1
    13     7     9    1
    14     7    23    1
    15     8    11    1
    16     8    24    1
    17     8    25    1
    18     9    13   ar
    19     9    14   ar
    20    10    11    1
    21    10    12   ar
    22    10    15   ar
    23    12    16   ar
    24    13    17   ar
    25    13    26    1
    26    14    20   ar
    27    14    27    1
    28    15    18   ar
    29    16    19   ar
    30    16    28    1
    31    17    21   ar
    32    18    19   ar
    33    18    29    1
    34    20    21   ar
    35    20    30    1
    36    22    34    1
    37    22    35    1
    38    22    36    1
