@<TRIPOS>MOLECULE
IMPHY016999
 19 19 0 0 0
SMALL
GASTEIGER

@<TRIPOS>ATOM
      1 O           2.0000    1.0950    0.0000 O.2     1  UNL1       -0.2907
      2 N           3.7320    2.0950    0.0000 N.3     1  UNL1       -0.3235
      3 C           2.8660   -0.4050    0.0000 C.ar    1  UNL1        0.0187
      4 C           2.8660    0.5950    0.0000 C.2     1  UNL1        0.1766
      5 C           3.7320    1.0950    0.0000 C.3     1  UNL1        0.0571
      6 C           3.7320   -0.9050    0.0000 C.ar    1  UNL1       -0.0512
      7 C           2.0000   -0.9050    0.0000 C.ar    1  UNL1       -0.0512
      8 C           3.7320   -1.9050    0.0000 C.ar    1  UNL1       -0.0611
      9 C           2.0000   -1.9050    0.0000 C.ar    1  UNL1       -0.0611
     10 C           2.8660   -2.4050    0.0000 C.ar    1  UNL1       -0.0617
     11 H           3.9441    0.5124    0.0000 H       1  UNL1        0.0504
     12 H           4.3426    1.2027    0.0000 H       1  UNL1        0.0504
     13 H           4.2690   -0.5950    0.0000 H       1  UNL1        0.0625
     14 H           1.4631   -0.5950    0.0000 H       1  UNL1        0.0625
     15 H           4.2690   -2.2150    0.0000 H       1  UNL1        0.0618
     16 H           1.4631   -2.2150    0.0000 H       1  UNL1        0.0618
     17 H           2.8660   -3.0250    0.0000 H       1  UNL1        0.0618
     18 H           4.2690    2.4050    0.0000 H       1  UNL1        0.1186
     19 H           3.1951    2.4050    0.0000 H       1  UNL1        0.1186
@<TRIPOS>BOND
     1     1     4    2
     2     2     5    1
     3     2    18    1
     4     2    19    1
     5     3     4    1
     6     3     6   ar
     7     3     7   ar
     8     4     5    1
     9     5    11    1
    10     5    12    1
    11     6     8   ar
    12     6    13    1
    13     7     9   ar
    14     7    14    1
    15     8    10   ar
    16     8    15    1
    17     9    10   ar
    18     9    16    1
    19    10    17    1
