@<TRIPOS>MOLECULE
IMPHY000863
 43 45 0 0 0
SMALL
GASTEIGER

@<TRIPOS>ATOM
      1 O           7.2241   -3.6297    0.0000 O.3     1  UNL1       -0.4815
      2 O           3.7320   -3.5950    0.0000 O.3     1  UNL1       -0.5059
      3 O           2.8660   -2.0950    0.0000 O.2     1  UNL1       -0.2915
      4 O           2.0000   -0.5950    0.0000 O.2     1  UNL1       -0.2916
      5 O           2.8660    3.9050    0.0000 O.3     1  UNL1       -0.5068
      6 C           8.1301   -3.1158    0.0000 C.3     1  UNL1        0.1235
      7 C           8.1301   -2.0742    0.0000 C.2     1  UNL1       -0.0409
      8 C           6.3301   -2.0950    0.0000 C.ar    1  UNL1        0.0174
      9 C           6.3301   -3.0950    0.0000 C.ar    1  UNL1        0.1323
     10 C           9.1301   -3.1197    0.0000 C.3     1  UNL1       -0.0215
     11 C           8.6268   -3.9838    0.0000 C.3     1  UNL1       -0.0215
     12 C           7.2241   -1.5603    0.0000 C.2     1  UNL1       -0.0513
     13 C           5.4641   -1.5950    0.0000 C.ar    1  UNL1       -0.0371
     14 C           4.5981   -2.0950    0.0000 C.ar    1  UNL1        0.0600
     15 C           5.4641   -3.5950    0.0000 C.ar    1  UNL1        0.0229
     16 C           4.5981   -3.0950    0.0000 C.ar    1  UNL1        0.1308
     17 C           3.7320   -1.5950    0.0000 C.2     1  UNL1        0.1741
     18 C           3.7320   -0.5950    0.0000 C.3     1  UNL1        0.0737
     19 C           2.8660   -0.0950    0.0000 C.2     1  UNL1        0.1706
     20 C           2.8660    0.9050    0.0000 C.ar    1  UNL1        0.0181
     21 C           3.7320    1.4050    0.0000 C.ar    1  UNL1       -0.0478
     22 C           2.0000    1.4050    0.0000 C.ar    1  UNL1       -0.0478
     23 C           3.7320    2.4050    0.0000 C.ar    1  UNL1       -0.0195
     24 C           2.0000    2.4050    0.0000 C.ar    1  UNL1       -0.0195
     25 C           2.8660    2.9050    0.0000 C.ar    1  UNL1        0.1169
     26 H           8.6659   -1.7621    0.0000 H       1  UNL1        0.0611
     27 H           9.1277   -3.7397    0.0000 H       1  UNL1        0.0271
     28 H           8.0887   -4.2917    0.0000 H       1  UNL1        0.0271
     29 H           8.9347   -4.5219    0.0000 H       1  UNL1        0.0271
     30 H           9.1649   -3.6758    0.0000 H       1  UNL1        0.0271
     31 H           9.7501   -3.1221    0.0000 H       1  UNL1        0.0271
     32 H           9.1325   -2.4997    0.0000 H       1  UNL1        0.0271
     33 H           7.2169   -0.9404    0.0000 H       1  UNL1        0.0623
     34 H           5.4641   -0.9750    0.0000 H       1  UNL1        0.0633
     35 H           5.4641   -4.2150    0.0000 H       1  UNL1        0.0691
     36 H           4.3426   -0.7027    0.0000 H       1  UNL1        0.0426
     37 H           3.9441   -0.0124    0.0000 H       1  UNL1        0.0426
     38 H           3.7320   -4.2150    0.0000 H       1  UNL1        0.2922
     39 H           4.2690    1.0950    0.0000 H       1  UNL1        0.0626
     40 H           1.4631    1.0950    0.0000 H       1  UNL1        0.0626
     41 H           4.2690    2.7150    0.0000 H       1  UNL1        0.0654
     42 H           1.4631    2.7150    0.0000 H       1  UNL1        0.0654
     43 H           2.3291    4.2150    0.0000 H       1  UNL1        0.2921
@<TRIPOS>BOND
     1     1     6    1
     2     1     9    1
     3     2    16    1
     4     2    38    1
     5     3    17    2
     6     4    19    2
     7     5    25    1
     8     5    43    1
     9     6     7    1
    10     6    10    1
    11     6    11    1
    12     7    12    2
    13     7    26    1
    14     8     9   ar
    15     8    12    1
    16     8    13   ar
    17     9    15   ar
    18    10    27    1
    19    10    31    1
    20    10    32    1
    21    11    28    1
    22    11    29    1
    23    11    30    1
    24    12    33    1
    25    13    14   ar
    26    13    34    1
    27    14    16   ar
    28    14    17    1
    29    15    16   ar
    30    15    35    1
    31    17    18    1
    32    18    19    1
    33    18    36    1
    34    18    37    1
    35    19    20    1
    36    20    21   ar
    37    20    22   ar
    38    21    23   ar
    39    21    39    1
    40    22    24   ar
    41    22    40    1
    42    23    25   ar
    43    23    41    1
    44    24    25   ar
    45    24    42    1
