@<TRIPOS>MOLECULE
IMPHY014160
 30 32 0 0 0
SMALL
GASTEIGER

@<TRIPOS>ATOM
      1 N           2.5896    1.3184    0.0000 N.ar    1  UNL1       -0.3602
      2 C           3.3987    0.7306    0.0000 C.ar    1  UNL1        0.0543
      3 C           4.2077    1.3184    0.0000 C.ar    1  UNL1        0.0074
      4 C           3.3987   -0.2694    0.0000 C.ar    1  UNL1       -0.0011
      5 C           5.1588    1.0094    0.0000 C.ar    1  UNL1       -0.0159
      6 C           3.8987    2.2694    0.0000 C.ar    1  UNL1       -0.0361
      7 C           2.8987    2.2694    0.0000 C.ar    1  UNL1        0.0028
      8 C           2.5326   -0.7694    0.0000 C.ar    1  UNL1       -0.0526
      9 C           4.2647   -0.7694    0.0000 C.ar    1  UNL1       -0.0526
     10 C           5.3667    0.0312    0.0000 C.ar    1  UNL1       -0.0540
     11 C           5.9019    1.6785    0.0000 C.ar    1  UNL1       -0.0540
     12 C           2.5326   -1.7694    0.0000 C.ar    1  UNL1       -0.0611
     13 C           4.2647   -1.7694    0.0000 C.ar    1  UNL1       -0.0611
     14 C           6.3177   -0.2778    0.0000 C.ar    1  UNL1       -0.0612
     15 C           6.8530    1.3695    0.0000 C.ar    1  UNL1       -0.0612
     16 C           3.3987   -2.2694    0.0000 C.ar    1  UNL1       -0.0617
     17 C           7.0609    0.3913    0.0000 C.ar    1  UNL1       -0.0617
     18 H           2.0000    1.1268    0.0000 H       1  UNL1        0.1653
     19 H           4.2631    2.7710    0.0000 H       1  UNL1        0.0639
     20 H           2.5342    2.7710    0.0000 H       1  UNL1        0.0807
     21 H           1.9957   -0.4594    0.0000 H       1  UNL1        0.0624
     22 H           4.8016   -0.4594    0.0000 H       1  UNL1        0.0624
     23 H           4.9059   -0.3837    0.0000 H       1  UNL1        0.0624
     24 H           5.7730    2.2849    0.0000 H       1  UNL1        0.0624
     25 H           1.9957   -2.0794    0.0000 H       1  UNL1        0.0618
     26 H           4.8016   -2.0794    0.0000 H       1  UNL1        0.0618
     27 H           6.4466   -0.8843    0.0000 H       1  UNL1        0.0618
     28 H           7.3137    1.7843    0.0000 H       1  UNL1        0.0618
     29 H           3.3987   -2.8894    0.0000 H       1  UNL1        0.0618
     30 H           7.6505    0.1997    0.0000 H       1  UNL1        0.0618
@<TRIPOS>BOND
     1     1     2   ar
     2     1     7   ar
     3     1    18    1
     4     2     3   ar
     5     2     4    1
     6     3     5    1
     7     3     6   ar
     8     4     8   ar
     9     4     9   ar
    10     5    10   ar
    11     5    11   ar
    12     6     7   ar
    13     6    19    1
    14     7    20    1
    15     8    12   ar
    16     8    21    1
    17     9    13   ar
    18     9    22    1
    19    10    14   ar
    20    10    23    1
    21    11    15   ar
    22    11    24    1
    23    12    16   ar
    24    12    25    1
    25    13    16   ar
    26    13    26    1
    27    14    17   ar
    28    14    27    1
    29    15    17   ar
    30    15    28    1
    31    16    29    1
    32    17    30    1
