@<TRIPOS>MOLECULE
IMPHY002506
 22 25 0 0 0
SMALL
GASTEIGER

@<TRIPOS>ATOM
      1 O        2462.5500 2560.3800    0.0000 O.3     1  UNL1       -0.3506
      2 C        2427.8800 2540.2700    0.0000 C.3     1  UNL1        0.1741
      3 C        2497.1300 2540.3700    0.0000 C.3     1  UNL1        0.1517
      4 C        2497.1300 2500.1500    0.0000 C.3     1  UNL1        0.0553
      5 C        2531.7000 2480.0400    0.0000 C.3     1  UNL1        0.0818
      6 C        2497.1300 2459.9300    0.0000 C.ar    1  UNL1       -0.0062
      7 C        2497.1300 2419.7000    0.0000 C.ar    1  UNL1       -0.0199
      8 C        2531.7000 2399.5900    0.0000 C.3     1  UNL1        0.0435
      9 C        2566.1800 2419.7000    0.0000 C.3     1  UNL1        0.0772
     10 N        2566.1800 2459.9300    0.0000 N.3     1  UNL1       -0.2680
     11 C        2606.4000 2459.9300    0.0000 C.3     1  UNL1        0.0769
     12 C        2606.4000 2500.1500    0.0000 C.3     1  UNL1        0.0407
     13 C        2566.1800 2500.1500    0.0000 C.2     1  UNL1       -0.0279
     14 C        2566.1800 2540.3700    0.0000 C.2     1  UNL1        0.0017
     15 C        2531.7000 2560.4800    0.0000 C.3     1  UNL1        0.2004
     16 O        2531.7000 2600.4100    0.0000 O.3     1  UNL1       -0.2157
     17 C        2462.6500 2399.5900    0.0000 C.ar    1  UNL1        0.0409
     18 C        2428.1700 2419.7000    0.0000 C.ar    1  UNL1        0.2339
     19 C        2428.1700 2459.9300    0.0000 C.ar    1  UNL1        0.2340
     20 C        2462.6500 2480.0400    0.0000 C.ar    1  UNL1        0.0424
     21 O        2393.6000 2479.8400    0.0000 O.3     1  UNL1       -0.2832
     22 O        2393.6000 2399.6900    0.0000 O.3     1  UNL1       -0.2832
@<TRIPOS>BOND
     1     1     2    1
     2     1     3    1
     3     3     4    1
     4     3    15    1
     5     4     5    1
     6     5     6    1
     7     5    10    1
     8     5    13    1
     9     6     7   ar
    10     6    20   ar
    11     7     8    1
    12     7    17   ar
    13     9     8    1
    14    10     9    1
    15    10    11    1
    16    12    11    1
    17    13    12    1
    18    14    13    2
    19    15    14    1
    20    15    16    1
    21    17    18   ar
    22    18    22    1
    23    19    18   ar
    24    19    21    1
    25    20    19   ar
