@<TRIPOS>MOLECULE
IMPHY016165
 34 35 0 0 0
SMALL
GASTEIGER

@<TRIPOS>ATOM
      1 C           4.5981   -0.0173    0.0000 C.3     1  UNL1       -0.0354
      2 C           4.5981    0.9827    0.0000 C.3     1  UNL1       -0.0379
      3 C           3.7320   -0.5173    0.0000 C.3     1  UNL1       -0.0382
      4 C           2.8660   -0.0173    0.0000 C.3     1  UNL1       -0.0410
      5 C           3.7320    1.4827    0.0000 C.3     1  UNL1       -0.0497
      6 C           5.4920   -0.5520    0.0000 C.3     1  UNL1       -0.0497
      7 C           5.4920    1.5173    0.0000 C.3     1  UNL1       -0.0499
      8 C           2.8660    0.9827    0.0000 C.3     1  UNL1       -0.0499
      9 C           6.3981   -0.0381    0.0000 C.3     1  UNL1       -0.0528
     10 C           6.3981    1.0035    0.0000 C.3     1  UNL1       -0.0528
     11 C           3.7320   -1.5173    0.0000 C.3     1  UNL1       -0.0619
     12 C           2.0000   -0.5173    0.0000 C.3     1  UNL1       -0.0622
     13 H           5.1374    0.2885    0.0000 H       1  UNL1        0.0306
     14 H           4.5933    1.6026    0.0000 H       1  UNL1        0.0304
     15 H           4.2690   -0.8273    0.0000 H       1  UNL1        0.0303
     16 H           2.8660   -0.6373    0.0000 H       1  UNL1        0.0301
     17 H           4.1306    1.9576    0.0000 H       1  UNL1        0.0268
     18 H           3.3335    1.9576    0.0000 H       1  UNL1        0.0268
     19 H           5.0874   -1.0218    0.0000 H       1  UNL1        0.0268
     20 H           5.8856   -1.0310    0.0000 H       1  UNL1        0.0268
     21 H           5.8856    1.9964    0.0000 H       1  UNL1        0.0268
     22 H           5.0874    1.9871    0.0000 H       1  UNL1        0.0268
     23 H           2.6540    1.5653    0.0000 H       1  UNL1        0.0268
     24 H           2.2554    0.8750    0.0000 H       1  UNL1        0.0268
     25 H           6.6071   -0.6218    0.0000 H       1  UNL1        0.0265
     26 H           7.0089    0.0679    0.0000 H       1  UNL1        0.0265
     27 H           7.0089    0.8974    0.0000 H       1  UNL1        0.0265
     28 H           6.6071    1.5872    0.0000 H       1  UNL1        0.0265
     29 H           3.1120   -1.5173    0.0000 H       1  UNL1        0.0233
     30 H           3.7320   -2.1373    0.0000 H       1  UNL1        0.0233
     31 H           4.3520   -1.5173    0.0000 H       1  UNL1        0.0233
     32 H           1.6900    0.0196    0.0000 H       1  UNL1        0.0233
     33 H           1.4631   -0.8273    0.0000 H       1  UNL1        0.0233
     34 H           2.3100   -1.0543    0.0000 H       1  UNL1        0.0233
@<TRIPOS>BOND
     1     1     2    1
     2     1     3    1
     3     1     6    1
     4     1    13    1
     5     2     5    1
     6     2     7    1
     7     2    14    1
     8     3     4    1
     9     3    11    1
    10     3    15    1
    11     4     8    1
    12     4    12    1
    13     4    16    1
    14     5     8    1
    15     5    17    1
    16     5    18    1
    17     6     9    1
    18     6    19    1
    19     6    20    1
    20     7    10    1
    21     7    21    1
    22     7    22    1
    23     8    23    1
    24     8    24    1
    25     9    10    1
    26     9    25    1
    27     9    26    1
    28    10    27    1
    29    10    28    1
    30    11    29    1
    31    11    30    1
    32    11    31    1
    33    12    32    1
    34    12    33    1
    35    12    34    1
