@<TRIPOS>MOLECULE
IMPHY008329
 67 72 0 0 0
SMALL
GASTEIGER

@<TRIPOS>ATOM
      1 O           5.5954   -2.2515    0.0000 O.3     1  UNL1       -0.3448
      2 O           3.9300   -1.1704    0.0000 O.3     1  UNL1       -0.3480
      3 C           6.6628   -0.0167    0.0000 C.3     1  UNL1       -0.0233
      4 C           5.9258   -0.6838    0.0000 C.3     1  UNL1       -0.0015
      5 C           7.5288   -0.5167    0.0000 C.3     1  UNL1       -0.0295
      6 C           6.3309   -1.5916    0.0000 C.3     1  UNL1        0.0660
      7 C           8.3948   -0.0167    0.0000 C.3     1  UNL1       -0.0305
      8 C           7.3196   -1.4885    0.0000 C.3     1  UNL1       -0.0226
      9 C           4.9434   -0.7905    0.0000 C.3     1  UNL1        0.0160
     10 C           6.6628    0.9833    0.0000 C.3     1  UNL1       -0.0465
     11 C           8.3948    0.9833    0.0000 C.3     1  UNL1       -0.0125
     12 C           4.7396   -1.7574    0.0000 C.3     1  UNL1        0.1732
     13 C           7.5288    1.4833    0.0000 C.3     1  UNL1       -0.0454
     14 C           5.7968    0.4833    0.0000 C.3     1  UNL1       -0.0590
     15 C           9.2888   -0.5514    0.0000 C.3     1  UNL1       -0.0454
     16 C           4.6359   -2.7520    0.0000 C.3     1  UNL1        0.0020
     17 C           4.2723   -0.0491    0.0000 C.3     1  UNL1       -0.0572
     18 C           9.2888    1.5180    0.0000 C.ar    1  UNL1       -0.0406
     19 C          10.1949   -0.0375    0.0000 C.3     1  UNL1       -0.0269
     20 C          10.1949    1.0041    0.0000 C.ar    1  UNL1       -0.0410
     21 C           3.7227   -3.1596    0.0000 C.3     1  UNL1       -0.0435
     22 C           2.9132   -2.5725    0.0000 C.3     1  UNL1       -0.0201
     23 C           3.0169   -1.5779    0.0000 C.3     1  UNL1        0.0535
     24 C           9.2637    2.6027    0.0000 C.ar    1  UNL1       -0.0580
     25 C          11.1386    1.5394    0.0000 C.ar    1  UNL1       -0.0470
     26 C           2.0000   -2.9800    0.0000 C.3     1  UNL1       -0.0603
     27 C          10.1949    3.1596    0.0000 C.ar    1  UNL1       -0.0612
     28 C          11.1386    2.6243    0.0000 C.ar    1  UNL1       -0.0586
     29 C          12.0027    1.0360    0.0000 C.3     1  UNL1       -0.0394
     30 H           5.5777    0.0917    0.0000 H       1  UNL1        0.0335
     31 H           8.2158   -1.0172    0.0000 H       1  UNL1        0.0310
     32 H           6.6756   -2.3685    0.0000 H       1  UNL1        0.0600
     33 H           8.3883   -0.8667    0.0000 H       1  UNL1        0.0310
     34 H           7.3187   -2.1085    0.0000 H       1  UNL1        0.0293
     35 H           7.9361   -1.5546    0.0000 H       1  UNL1        0.0293
     36 H           4.3448   -0.9522    0.0000 H       1  UNL1        0.0354
     37 H           6.4507    1.5659    0.0000 H       1  UNL1        0.0271
     38 H           6.0522    0.8756    0.0000 H       1  UNL1        0.0271
     39 H           8.3883    1.8333    0.0000 H       1  UNL1        0.0352
     40 H           7.9274    1.9582    0.0000 H       1  UNL1        0.0271
     41 H           7.1303    1.9582    0.0000 H       1  UNL1        0.0271
     42 H           6.1068    1.0202    0.0000 H       1  UNL1        0.0235
     43 H           5.2598    0.7933    0.0000 H       1  UNL1        0.0235
     44 H           5.4868   -0.0536    0.0000 H       1  UNL1        0.0235
     45 H           8.8842   -1.0212    0.0000 H       1  UNL1        0.0271
     46 H           9.6824   -1.0304    0.0000 H       1  UNL1        0.0271
     47 H           4.7864   -3.3535    0.0000 H       1  UNL1        0.0317
     48 H           5.2544   -2.7083    0.0000 H       1  UNL1        0.0317
     49 H           4.7320    0.3670    0.0000 H       1  UNL1        0.0234
     50 H           3.8562    0.4106    0.0000 H       1  UNL1        0.0234
     51 H           3.8126   -0.4651    0.0000 H       1  UNL1        0.0234
     52 H          10.4039   -0.6212    0.0000 H       1  UNL1        0.0313
     53 H          10.8057    0.0686    0.0000 H       1  UNL1        0.0313
     54 H           3.2771   -3.5906    0.0000 H       1  UNL1        0.0270
     55 H           4.0699   -3.6733    0.0000 H       1  UNL1        0.0270
     56 H           2.4113   -2.2085    0.0000 H       1  UNL1        0.0320
     57 H           2.8664   -0.9764    0.0000 H       1  UNL1        0.0563
     58 H           2.3984   -1.6217    0.0000 H       1  UNL1        0.0563
     59 H           8.7209    2.9022    0.0000 H       1  UNL1        0.0620
     60 H           1.7473   -2.4138    0.0000 H       1  UNL1        0.0233
     61 H           1.4338   -3.2327    0.0000 H       1  UNL1        0.0233
     62 H           2.2527   -3.5462    0.0000 H       1  UNL1        0.0233
     63 H          10.1877    3.7795    0.0000 H       1  UNL1        0.0618
     64 H          11.6744    2.9364    0.0000 H       1  UNL1        0.0620
     65 H          11.6907    0.5003    0.0000 H       1  UNL1        0.0278
     66 H          12.5385    0.7239    0.0000 H       1  UNL1        0.0278
     67 H          12.3148    1.5718    0.0000 H       1  UNL1        0.0278
@<TRIPOS>BOND
     1     1     6    1
     2    12     1    1
     3     2    12    1
     4     2    23    1
     5     3     4    1
     6     3     5    1
     7     3    10    1
     8     3    14    1
     9     4     6    1
    10     4     9    1
    11     4    30    1
    12     5     7    1
    13     5     8    1
    14     5    31    1
    15     6     8    1
    16     6    32    1
    17     7    11    1
    18     7    15    1
    19     7    33    1
    20     8    34    1
    21     8    35    1
    22     9    12    1
    23     9    17    1
    24     9    36    1
    25    10    13    1
    26    10    37    1
    27    10    38    1
    28    11    13    1
    29    11    18    1
    30    11    39    1
    31    12    16    1
    32    13    40    1
    33    13    41    1
    34    14    42    1
    35    14    43    1
    36    14    44    1
    37    15    19    1
    38    15    45    1
    39    15    46    1
    40    16    21    1
    41    16    47    1
    42    16    48    1
    43    17    49    1
    44    17    50    1
    45    17    51    1
    46    18    20   ar
    47    18    24   ar
    48    19    20    1
    49    19    52    1
    50    19    53    1
    51    20    25   ar
    52    21    22    1
    53    21    54    1
    54    21    55    1
    55    22    23    1
    56    22    26    1
    57    22    56    1
    58    23    57    1
    59    23    58    1
    60    24    27   ar
    61    24    59    1
    62    25    28   ar
    63    25    29    1
    64    26    60    1
    65    26    61    1
    66    26    62    1
    67    27    28   ar
    68    27    63    1
    69    28    64    1
    70    29    65    1
    71    29    66    1
    72    29    67    1
