@<TRIPOS>MOLECULE
IMPHY012976
 59 61 0 0 0
SMALL
GASTEIGER

@<TRIPOS>ATOM
      1 O           8.0901   -0.1897    0.0000 O.3     1  UNL1       -0.4825
      2 O           4.5981   -0.1550    0.0000 O.3     1  UNL1       -0.5063
      3 O           8.0785    2.8796    0.0000 O.2     1  UNL1       -0.2917
      4 O           6.3301    2.8450    0.0000 O.3     1  UNL1       -0.5058
      5 O           8.9884   -1.6758    0.0000 O.3     1  UNL1       -0.5063
      6 O          12.4525   -1.6892    0.0000 O.3     1  UNL1       -0.5066
      7 C           5.4641   -1.6550    0.0000 C.3     1  UNL1       -0.0128
      8 C           6.3301   -1.1550    0.0000 C.3     1  UNL1       -0.0139
      9 C           6.3301   -0.1550    0.0000 C.ar    1  UNL1        0.0371
     10 C           7.1962    0.3450    0.0000 C.ar    1  UNL1        0.1420
     11 C           8.9962    0.3242    0.0000 C.3     1  UNL1        0.1355
     12 C           8.9962    1.3658    0.0000 C.3     1  UNL1        0.0521
     13 C           7.1962    1.3450    0.0000 C.ar    1  UNL1        0.1009
     14 C           4.5981   -1.1550    0.0000 C.3     1  UNL1       -0.0277
     15 C           8.0901    1.8797    0.0000 C.2     1  UNL1        0.1740
     16 C           5.4641   -2.6550    0.0000 C.2     1  UNL1       -0.0760
     17 C           5.4641    0.3450    0.0000 C.ar    1  UNL1        0.1270
     18 C           9.8602   -0.1792    0.0000 C.ar    1  UNL1        0.0347
     19 C           6.3301    1.8450    0.0000 C.ar    1  UNL1        0.1343
     20 C           5.4641    1.3450    0.0000 C.ar    1  UNL1        0.0225
     21 C           3.7320   -1.6550    0.0000 C.2     1  UNL1       -0.0847
     22 C           4.5981   -3.1550    0.0000 C.3     1  UNL1       -0.0438
     23 C           9.8564   -1.1791    0.0000 C.ar    1  UNL1        0.1270
     24 C          10.7282    0.3175    0.0000 C.ar    1  UNL1       -0.0481
     25 C           6.3301   -3.1550    0.0000 C.2     1  UNL1       -0.0994
     26 C           2.8660   -1.1550    0.0000 C.2     1  UNL1       -0.0796
     27 C          10.7205   -1.6825    0.0000 C.ar    1  UNL1        0.0217
     28 C          11.5923   -0.1858    0.0000 C.ar    1  UNL1       -0.0196
     29 C          11.5884   -1.1858    0.0000 C.ar    1  UNL1        0.1203
     30 C           2.0000   -1.6550    0.0000 C.3     1  UNL1       -0.0440
     31 C           2.8660   -0.1550    0.0000 C.3     1  UNL1       -0.0440
     32 H           5.4641   -1.0350    0.0000 H       1  UNL1        0.0352
     33 H           6.5422   -1.7376    0.0000 H       1  UNL1        0.0321
     34 H           6.9407   -1.0473    0.0000 H       1  UNL1        0.0321
     35 H           8.9913   -0.5258    0.0000 H       1  UNL1        0.0790
     36 H           9.6070    1.2597    0.0000 H       1  UNL1        0.0385
     37 H           9.2052    1.9495    0.0000 H       1  UNL1        0.0385
     38 H           4.9966   -0.6801    0.0000 H       1  UNL1        0.0313
     39 H           4.1996   -0.6801    0.0000 H       1  UNL1        0.0313
     40 H           4.9272    1.6550    0.0000 H       1  UNL1        0.0691
     41 H           3.7320   -2.2750    0.0000 H       1  UNL1        0.0572
     42 H           4.2881   -2.6181    0.0000 H       1  UNL1        0.0274
     43 H           4.0611   -3.4650    0.0000 H       1  UNL1        0.0274
     44 H           4.9081   -3.6919    0.0000 H       1  UNL1        0.0274
     45 H          10.7306    0.9375    0.0000 H       1  UNL1        0.0624
     46 H           6.3301   -3.7750    0.0000 H       1  UNL1        0.0534
     47 H           6.8671   -2.8450    0.0000 H       1  UNL1        0.0534
     48 H           4.0611    0.1550    0.0000 H       1  UNL1        0.2921
     49 H          10.7181   -2.3025    0.0000 H       1  UNL1        0.0691
     50 H          12.1304    0.1221    0.0000 H       1  UNL1        0.0654
     51 H           5.7932    3.1550    0.0000 H       1  UNL1        0.2922
     52 H           1.6900   -1.1181    0.0000 H       1  UNL1        0.0274
     53 H           1.4631   -1.9650    0.0000 H       1  UNL1        0.0274
     54 H           2.3100   -2.1919    0.0000 H       1  UNL1        0.0274
     55 H           3.4860   -0.1550    0.0000 H       1  UNL1        0.0274
     56 H           2.8660    0.4650    0.0000 H       1  UNL1        0.0274
     57 H           2.2460   -0.1550    0.0000 H       1  UNL1        0.0274
     58 H           8.9861   -2.2958    0.0000 H       1  UNL1        0.2921
     59 H          12.9907   -1.3812    0.0000 H       1  UNL1        0.2921
@<TRIPOS>BOND
     1     1    10    1
     2     1    11    1
     3     2    17    1
     4     2    48    1
     5     3    15    2
     6     4    19    1
     7     4    51    1
     8     5    23    1
     9     5    58    1
    10     6    29    1
    11     6    59    1
    12     7     8    1
    13     7    14    1
    14     7    16    1
    15     7    32    1
    16     8     9    1
    17     8    33    1
    18     8    34    1
    19     9    10   ar
    20     9    17   ar
    21    10    13   ar
    22    11    12    1
    23    11    18    1
    24    11    35    1
    25    12    15    1
    26    12    36    1
    27    12    37    1
    28    13    15    1
    29    13    19   ar
    30    14    21    1
    31    14    38    1
    32    14    39    1
    33    16    22    1
    34    16    25    2
    35    17    20   ar
    36    18    23   ar
    37    18    24   ar
    38    19    20   ar
    39    20    40    1
    40    21    26    2
    41    21    41    1
    42    22    42    1
    43    22    43    1
    44    22    44    1
    45    23    27   ar
    46    24    28   ar
    47    24    45    1
    48    25    46    1
    49    25    47    1
    50    26    30    1
    51    26    31    1
    52    27    29   ar
    53    27    49    1
    54    28    29   ar
    55    28    50    1
    56    30    52    1
    57    30    53    1
    58    30    54    1
    59    31    55    1
    60    31    56    1
    61    31    57    1
