@<TRIPOS>MOLECULE
IMPHY017113
 29 29 0 0 0
SMALL
GASTEIGER

@<TRIPOS>ATOM
      1 O           2.4608   -0.2740    0.0000 O.3     1  UNL1       -0.3950
      2 C           5.9150    0.3649    0.0000 C.3     1  UNL1       -0.0112
      3 C           5.1060   -0.2229    0.0000 C.3     1  UNL1       -0.0299
      4 C           5.4150   -1.1739    0.0000 C.3     1  UNL1       -0.0457
      5 C           6.7240   -0.2229    0.0000 C.2     1  UNL1       -0.0707
      6 C           6.4150   -1.1739    0.0000 C.3     1  UNL1       -0.0312
      7 C           4.1550    0.0861    0.0000 C.3     1  UNL1       -0.0261
      8 C           6.5028    1.1739    0.0000 C.3     1  UNL1       -0.0558
      9 C           5.3272    1.1739    0.0000 C.3     1  UNL1       -0.0558
     10 C           3.4118   -0.5830    0.0000 C.3     1  UNL1        0.0445
     11 C           7.6751    0.0861    0.0000 C.2     1  UNL1       -0.0989
     12 H           4.6676   -0.6613    0.0000 H       1  UNL1        0.0310
     13 H           4.8086   -1.3028    0.0000 H       1  UNL1        0.0271
     14 H           5.4798   -1.7905    0.0000 H       1  UNL1        0.0271
     15 H           6.3502   -1.7905    0.0000 H       1  UNL1        0.0310
     16 H           7.0215   -1.3028    0.0000 H       1  UNL1        0.0310
     17 H           4.4460    0.6336    0.0000 H       1  UNL1        0.0290
     18 H           3.6664    0.4679    0.0000 H       1  UNL1        0.0290
     19 H           7.0044    0.8095    0.0000 H       1  UNL1        0.0238
     20 H           6.8672    1.6755    0.0000 H       1  UNL1        0.0238
     21 H           6.0012    1.5384    0.0000 H       1  UNL1        0.0238
     22 H           5.8288    1.5384    0.0000 H       1  UNL1        0.0238
     23 H           4.9628    1.6755    0.0000 H       1  UNL1        0.0238
     24 H           4.8257    0.8095    0.0000 H       1  UNL1        0.0238
     25 H           3.1207   -1.1304    0.0000 H       1  UNL1        0.0557
     26 H           3.9004   -0.9647    0.0000 H       1  UNL1        0.0557
     27 H           8.1358   -0.3287    0.0000 H       1  UNL1        0.0535
     28 H           7.8040    0.6926    0.0000 H       1  UNL1        0.0535
     29 H           2.0000   -0.6888    0.0000 H       1  UNL1        0.2094
@<TRIPOS>BOND
     1     1    10    1
     2     1    29    1
     3     2     3    1
     4     2     5    1
     5     2     8    1
     6     2     9    1
     7     3     4    1
     8     3     7    1
     9     3    12    1
    10     4     6    1
    11     4    13    1
    12     4    14    1
    13     5     6    1
    14     5    11    2
    15     6    15    1
    16     6    16    1
    17     7    10    1
    18     7    17    1
    19     7    18    1
    20     8    19    1
    21     8    20    1
    22     8    21    1
    23     9    22    1
    24     9    23    1
    25     9    24    1
    26    10    25    1
    27    10    26    1
    28    11    27    1
    29    11    28    1
