@<TRIPOS>MOLECULE
IMPHY007462
 34 38 0 0 0
SMALL
GASTEIGER

@<TRIPOS>ATOM
      1 O           6.4642    1.5420    0.0000 O.3     1  UNL1       -0.4520
      2 O           6.4642    3.1514    0.0000 O.3     1  UNL1       -0.4526
      3 O           2.0000   -0.1984    0.0000 O.2     1  UNL1       -0.2850
      4 O           4.7052   -2.8500    0.0000 O.3     1  UNL1       -0.4951
      5 N           2.0367    1.8681    0.0000 N.ar    1  UNL1       -0.2511
      6 C           4.6520    1.3467    0.0000 C.ar    1  UNL1        0.0381
      7 C           3.7860    1.8467    0.0000 C.ar    1  UNL1        0.0227
      8 C           4.6681    0.3052    0.0000 C.ar    1  UNL1       -0.0025
      9 C           5.5180    1.8467    0.0000 C.ar    1  UNL1        0.1746
     10 C           3.7860    2.8467    0.0000 C.ar    1  UNL1       -0.0100
     11 C           2.8760    1.3398    0.0000 C.ar    1  UNL1        0.1193
     12 C           3.7700   -0.2226    0.0000 C.ar    1  UNL1        0.0351
     13 C           5.5180    2.8467    0.0000 C.ar    1  UNL1        0.1674
     14 C           2.8680    0.2982    0.0000 C.2     1  UNL1        0.2125
     15 C           4.6520    3.3467    0.0000 C.ar    1  UNL1       -0.0083
     16 C           5.6200   -0.2154    0.0000 C.ar    1  UNL1       -0.0498
     17 C           2.9278    3.3436    0.0000 C.ar    1  UNL1       -0.0357
     18 C           3.7617   -1.3075    0.0000 C.ar    1  UNL1       -0.0085
     19 C           7.0479    2.3467    0.0000 C.3     1  UNL1        0.2333
     20 C           4.7013   -1.8500    0.0000 C.ar    1  UNL1        0.1208
     21 C           5.6367   -1.3003    0.0000 C.ar    1  UNL1       -0.0193
     22 C           2.0623    2.8594    0.0000 C.ar    1  UNL1        0.0290
     23 C           5.5731   -3.3467    0.0000 C.3     1  UNL1        0.0788
     24 H           4.6520    3.9667    0.0000 H       1  UNL1        0.0661
     25 H           6.1508    0.1048    0.0000 H       1  UNL1        0.0625
     26 H           2.9324    3.9636    0.0000 H       1  UNL1        0.0639
     27 H           3.2235   -1.6155    0.0000 H       1  UNL1        0.0661
     28 H           7.5087    1.9320    0.0000 H       1  UNL1        0.1166
     29 H           7.5087    2.7614    0.0000 H       1  UNL1        0.1166
     30 H           6.1772   -1.6041    0.0000 H       1  UNL1        0.0654
     31 H           1.5316    3.1800    0.0000 H       1  UNL1        0.0830
     32 H           5.2652   -3.8848    0.0000 H       1  UNL1        0.0660
     33 H           6.1112   -3.6546    0.0000 H       1  UNL1        0.0660
     34 H           5.8810   -2.8086    0.0000 H       1  UNL1        0.0660
@<TRIPOS>BOND
     1     1     9    1
     2     1    19    1
     3     2    13    1
     4     2    19    1
     5     3    14    2
     6     4    20    1
     7     4    23    1
     8     5    11   ar
     9     5    22   ar
    10     6     7   ar
    11     6     8    1
    12     6     9   ar
    13     7    10   ar
    14     7    11   ar
    15     8    12   ar
    16     8    16   ar
    17     9    13   ar
    18    10    15   ar
    19    10    17   ar
    20    11    14    1
    21    12    14    1
    22    12    18   ar
    23    13    15   ar
    24    15    24    1
    25    16    21   ar
    26    16    25    1
    27    17    22   ar
    28    17    26    1
    29    18    20   ar
    30    18    27    1
    31    19    28    1
    32    19    29    1
    33    20    21   ar
    34    21    30    1
    35    22    31    1
    36    23    32    1
    37    23    33    1
    38    23    34    1
