@<TRIPOS>MOLECULE
IMPHY006876
 53 54 0 0 0
SMALL
GASTEIGER

@<TRIPOS>ATOM
      1 O           8.8131    0.9181    0.0000 O.3     1  UNL1       -0.3902
      2 O           3.5731    1.9313    0.0000 O.2     1  UNL1       -0.2758
      3 N           6.1712    0.4313    0.0000 N.3     1  UNL1       -0.2898
      4 N           3.9318   -1.7934    0.0000 N.3     1  UNL1       -0.3159
      5 N           2.7071    0.4313    0.0000 N.am    1  UNL1       -0.3153
      6 C           7.0812    0.9381    0.0000 C.3     1  UNL1        0.0403
      7 C           5.3052    0.9313    0.0000 C.3     1  UNL1        0.0373
      8 C           7.0892    1.9797    0.0000 C.3     1  UNL1       -0.0166
      9 C           7.9414    0.4282    0.0000 C.3     1  UNL1        0.0708
     10 C           6.1712   -0.5687    0.0000 C.3     1  UNL1        0.0010
     11 C           4.4392    0.4313    0.0000 C.3     1  UNL1        0.0431
     12 C           5.2891    1.9728    0.0000 C.2     1  UNL1       -0.0704
     13 C           6.1872    2.5006    0.0000 C.2     1  UNL1       -0.0849
     14 C           5.7638   -1.5523    0.0000 C.3     1  UNL1       -0.0276
     15 C           7.9298   -0.5718    0.0000 C.3     1  UNL1       -0.0282
     16 C           4.8978   -2.0523    0.0000 C.3     1  UNL1       -0.0029
     17 C           3.5731    0.9313    0.0000 C.2     1  UNL1        0.2148
     18 C           8.7900   -1.0818    0.0000 C.3     1  UNL1       -0.0629
     19 C           3.2247   -2.5006    0.0000 C.3     1  UNL1       -0.0041
     20 C           2.2588   -2.2417    0.0000 C.3     1  UNL1       -0.0390
     21 C           2.0000   -1.2758    0.0000 C.3     1  UNL1       -0.0362
     22 C           2.7071   -0.5687    0.0000 C.3     1  UNL1        0.0116
     23 H           7.8214    1.3560    0.0000 H       1  UNL1        0.0491
     24 H           4.5658    1.3506    0.0000 H       1  UNL1        0.0511
     25 H           7.6993    1.8689    0.0000 H       1  UNL1        0.0323
     26 H           7.3028    2.5618    0.0000 H       1  UNL1        0.0323
     27 H           8.4747    0.1120    0.0000 H       1  UNL1        0.0609
     28 H           6.6096   -1.0071    0.0000 H       1  UNL1        0.0427
     29 H           5.5631   -0.4477    0.0000 H       1  UNL1        0.0427
     30 H           4.0406   -0.0437    0.0000 H       1  UNL1        0.0377
     31 H           4.8377   -0.0437    0.0000 H       1  UNL1        0.0377
     32 H           4.7486    2.2766    0.0000 H       1  UNL1        0.0585
     33 H           6.1848    3.1206    0.0000 H       1  UNL1        0.0570
     34 H           5.8980   -2.1576    0.0000 H       1  UNL1        0.0290
     35 H           6.3814   -1.6063    0.0000 H       1  UNL1        0.0290
     36 H           7.3205   -0.4571    0.0000 H       1  UNL1        0.0288
     37 H           7.7111   -1.1519    0.0000 H       1  UNL1        0.0288
     38 H           4.5878   -2.5892    0.0000 H       1  UNL1        0.0424
     39 H           5.3362   -2.4907    0.0000 H       1  UNL1        0.0424
     40 H           9.3465    0.6019    0.0000 H       1  UNL1        0.2098
     41 H           8.4738   -1.6151    0.0000 H       1  UNL1        0.0231
     42 H           9.3233   -1.3979    0.0000 H       1  UNL1        0.0231
     43 H           9.1062   -0.5484    0.0000 H       1  UNL1        0.0231
     44 H           3.7714   -1.1946    0.0000 H       1  UNL1        0.1219
     45 H           2.9627   -3.0625    0.0000 H       1  UNL1        0.0424
     46 H           3.7326   -2.8562    0.0000 H       1  UNL1        0.0424
     47 H           1.6412   -2.2958    0.0000 H       1  UNL1        0.0278
     48 H           2.2048   -2.8594    0.0000 H       1  UNL1        0.0278
     49 H           2.1702    0.7413    0.0000 H       1  UNL1        0.1487
     50 H           1.6444   -0.7679    0.0000 H       1  UNL1        0.0281
     51 H           1.4381   -1.5378    0.0000 H       1  UNL1        0.0281
     52 H           3.0171   -1.1056    0.0000 H       1  UNL1        0.0462
     53 H           3.3060   -0.4082    0.0000 H       1  UNL1        0.0462
@<TRIPOS>BOND
     1     9     1    1
     2     1    40    1
     3     2    17    2
     4     3     6    1
     5     3     7    1
     6     3    10    1
     7     4    16    1
     8     4    19    1
     9     4    44    1
    10     5    17   am
    11     5    22    1
    12     5    49    1
    13     6     8    1
    14     6     9    1
    15     6    23    1
    16     7    11    1
    17     7    12    1
    18     7    24    1
    19     8    13    1
    20     8    25    1
    21     8    26    1
    22     9    15    1
    23     9    27    1
    24    10    14    1
    25    10    28    1
    26    10    29    1
    27    11    17    1
    28    11    30    1
    29    11    31    1
    30    12    13    2
    31    12    32    1
    32    13    33    1
    33    14    16    1
    34    14    34    1
    35    14    35    1
    36    15    18    1
    37    15    36    1
    38    15    37    1
    39    16    38    1
    40    16    39    1
    41    18    41    1
    42    18    42    1
    43    18    43    1
    44    19    20    1
    45    19    45    1
    46    19    46    1
    47    20    21    1
    48    20    47    1
    49    20    48    1
    50    21    22    1
    51    21    50    1
    52    21    51    1
    53    22    52    1
    54    22    53    1
