@<TRIPOS>MOLECULE
IMPHY003374
 71 74 0 0 0
SMALL
GASTEIGER

@<TRIPOS>ATOM
      1 O           4.6200    0.4336    0.0000 O.3     1  UNL1       -0.3377
      2 O           5.6200    1.4336    0.0000 O.3     1  UNL1       -0.3493
      3 O           6.8860   -1.0752    0.0000 O.3     1  UNL1       -0.3838
      4 O           6.1200   -2.1644    0.0000 O.3     1  UNL1       -0.3864
      5 O           4.1200   -2.1644    0.0000 O.3     1  UNL1       -0.3865
      6 O           5.6200    3.4336    0.0000 O.3     1  UNL1       -0.3947
      7 O           2.6200    0.4336    0.0000 O.3     1  UNL1       -0.3924
      8 O          10.8822    2.4578    0.0000 O.3     1  UNL1       -0.4914
      9 O          10.8822    0.4095    0.0000 O.3     1  UNL1       -0.5033
     10 O           7.9543   -2.9777    0.0000 O.3     1  UNL1       -0.4914
     11 O           9.9237   -2.6301    0.0000 O.3     1  UNL1       -0.5033
     12 C           6.4860    0.9336    0.0000 C.3     1  UNL1        0.0318
     13 C           5.6200    0.4336    0.0000 C.3     1  UNL1        0.2029
     14 C           6.4860    1.9336    0.0000 C.3     1  UNL1       -0.0052
     15 C           7.3520    0.4336    0.0000 C.3     1  UNL1        0.0178
     16 C           6.1200   -0.4324    0.0000 C.3     1  UNL1        0.1374
     17 C           7.3520    2.4336    0.0000 C.3     1  UNL1       -0.0219
     18 C           5.6200   -1.2984    0.0000 C.3     1  UNL1        0.1144
     19 C           8.2181    0.9336    0.0000 C.ar    1  UNL1       -0.0327
     20 C           4.1200   -0.4324    0.0000 C.3     1  UNL1        0.1133
     21 C           4.6200   -1.2984    0.0000 C.3     1  UNL1        0.1119
     22 C           8.2181    1.9336    0.0000 C.ar    1  UNL1       -0.0396
     23 C           5.6200    2.4336    0.0000 C.3     1  UNL1        0.0478
     24 C           7.9949   -0.3323    0.0000 C.ar    1  UNL1       -0.0358
     25 C           9.1120    0.3990    0.0000 C.ar    1  UNL1       -0.0125
     26 C           3.1200   -0.4324    0.0000 C.3     1  UNL1        0.0730
     27 C           9.1120    2.4683    0.0000 C.ar    1  UNL1       -0.0128
     28 C           7.6532   -1.2720    0.0000 C.ar    1  UNL1       -0.0125
     29 C           8.9797   -0.1585    0.0000 C.ar    1  UNL1       -0.0543
     30 C           4.7540    1.9336    0.0000 C.3     1  UNL1        0.0398
     31 C          10.0181    0.9128    0.0000 C.ar    1  UNL1        0.1587
     32 C          10.0181    1.9544    0.0000 C.ar    1  UNL1        0.1615
     33 C           8.2961   -2.0380    0.0000 C.ar    1  UNL1        0.1615
     34 C           9.6227   -0.9244    0.0000 C.ar    1  UNL1       -0.0162
     35 C           9.2808   -1.8642    0.0000 C.ar    1  UNL1        0.1585
     36 C          10.8783    3.4578    0.0000 C.3     1  UNL1        0.0790
     37 C           8.5972   -3.7436    0.0000 C.3     1  UNL1        0.0790
     38 H           6.4860    0.3136    0.0000 H       1  UNL1        0.0366
     39 H           6.4860    2.5536    0.0000 H       1  UNL1        0.0331
     40 H           6.9536   -0.0413    0.0000 H       1  UNL1        0.0402
     41 H           6.5950   -0.0339    0.0000 H       1  UNL1        0.0674
     42 H           7.7506    2.9086    0.0000 H       1  UNL1        0.0317
     43 H           6.9535    2.9086    0.0000 H       1  UNL1        0.0317
     44 H           5.3100   -1.8354    0.0000 H       1  UNL1        0.0648
     45 H           3.8100    0.1045    0.0000 H       1  UNL1        0.0647
     46 H           4.0000   -1.2984    0.0000 H       1  UNL1        0.0647
     47 H           5.0094    2.5413    0.0000 H       1  UNL1        0.0560
     48 H           5.4079    1.8510    0.0000 H       1  UNL1        0.0560
     49 H           9.1049   -0.2210    0.0000 H       1  UNL1        0.0658
     50 H           2.5374   -0.6444    0.0000 H       1  UNL1        0.0584
     51 H           3.2277   -1.0430    0.0000 H       1  UNL1        0.0584
     52 H           9.1049    3.0882    0.0000 H       1  UNL1        0.0658
     53 H           6.7784   -1.6858    0.0000 H       1  UNL1        0.2101
     54 H           7.0426   -1.3798    0.0000 H       1  UNL1        0.0658
     55 H           5.8100   -2.7014    0.0000 H       1  UNL1        0.2100
     56 H           9.1917    0.4242    0.0000 H       1  UNL1        0.0622
     57 H           5.0640    2.4706    0.0000 H       1  UNL1        0.0525
     58 H           4.2170    2.2436    0.0000 H       1  UNL1        0.0525
     59 H           4.4440    1.3967    0.0000 H       1  UNL1        0.0525
     60 H           3.5000   -2.1644    0.0000 H       1  UNL1        0.2100
     61 H           5.0831    3.7436    0.0000 H       1  UNL1        0.2094
     62 H          10.2332   -0.8166    0.0000 H       1  UNL1        0.0655
     63 H           2.0000    0.4336    0.0000 H       1  UNL1        0.2095
     64 H          11.4203    0.7174    0.0000 H       1  UNL1        0.2923
     65 H          11.4983    3.4602    0.0000 H       1  UNL1        0.0660
     66 H          10.8759    4.0778    0.0000 H       1  UNL1        0.0660
     67 H          10.2583    3.4554    0.0000 H       1  UNL1        0.0660
     68 H          10.5343   -2.5223    0.0000 H       1  UNL1        0.2923
     69 H           8.1223   -4.1423    0.0000 H       1  UNL1        0.0660
     70 H           8.9958   -4.2185    0.0000 H       1  UNL1        0.0660
     71 H           9.0721   -3.3450    0.0000 H       1  UNL1        0.0660
@<TRIPOS>BOND
     1     1    13    1
     2     1    20    1
     3     2    13    1
     4     2    30    1
     5    16     3    1
     6     3    53    1
     7    18     4    1
     8     4    55    1
     9    21     5    1
    10     5    60    1
    11     6    23    1
    12     6    61    1
    13     7    26    1
    14     7    63    1
    15     8    32    1
    16     8    36    1
    17     9    31    1
    18     9    64    1
    19    10    33    1
    20    10    37    1
    21    11    35    1
    22    11    68    1
    23    12    13    1
    24    12    14    1
    25    12    15    1
    26    12    38    1
    27    13    16    1
    28    14    17    1
    29    14    23    1
    30    14    39    1
    31    15    19    1
    32    15    24    1
    33    15    40    1
    34    16    18    1
    35    16    41    1
    36    17    22    1
    37    17    42    1
    38    17    43    1
    39    18    21    1
    40    18    44    1
    41    19    22   ar
    42    19    25   ar
    43    20    21    1
    44    20    26    1
    45    20    45    1
    46    21    46    1
    47    22    27   ar
    48    23    47    1
    49    23    48    1
    50    24    28   ar
    51    24    29   ar
    52    25    31   ar
    53    25    49    1
    54    26    50    1
    55    26    51    1
    56    27    32   ar
    57    27    52    1
    58    28    33   ar
    59    28    54    1
    60    29    34   ar
    61    29    56    1
    62    30    57    1
    63    30    58    1
    64    30    59    1
    65    31    32   ar
    66    33    35   ar
    67    34    35   ar
    68    34    62    1
    69    36    65    1
    70    36    66    1
    71    36    67    1
    72    37    69    1
    73    37    70    1
    74    37    71    1
