@<TRIPOS>MOLECULE
IMPHY005423
 27 26 0 0 0
SMALL
GASTEIGER

@<TRIPOS>ATOM
      1 O           6.0010   -1.2500    0.0000 O.3     1  UNL1       -0.3885
      2 O           2.5369   -0.2500    0.0000 O.3     1  UNL1       -0.4795
      3 OXT         3.4030    1.2500    0.0000 O.2     1  UNL1       -0.2493
      4 N           4.2690   -1.2500    0.0000 N.3     1  UNL1       -0.3183
      5 N           7.7331   -0.2500    0.0000 N.pl3   1  UNL1       -0.1112
      6 N           9.4651   -0.2500    0.0000 N.pl3   1  UNL1       -0.2893
      7 N           8.5991    1.2500    0.0000 N.pl3   1  UNL1       -0.2893
      8 C           5.1350    0.2500    0.0000 C.3     1  UNL1        0.0019
      9 C           6.0010   -0.2500    0.0000 C.3     1  UNL1        0.0911
     10 CA          4.2690   -0.2500    0.0000 C.3     1  UNL1        0.1057
     11 C           6.8671    0.2500    0.0000 C.3     1  UNL1        0.1305
     12 C           3.4030    0.2500    0.0000 C.2     1  UNL1        0.3218
     13 C           8.5991    0.2500    0.0000 C.cat   1  UNL1        0.3766
     14 H           5.5335    0.7249    0.0000 H       1  UNL1        0.0311
     15 H           4.7365    0.7249    0.0000 H       1  UNL1        0.0311
     16 H           6.5380   -0.5600    0.0000 H       1  UNL1        0.0627
     17 HA          4.8059   -0.5600    0.0000 H       1  UNL1        0.0575
     18 H           7.2656    0.7249    0.0000 H       1  UNL1        0.0719
     19 H           6.4685    0.7249    0.0000 H       1  UNL1        0.0719
     20 H1          3.7320   -1.5600    0.0000 H       1  UNL1        0.1190
     21 H2          4.8059   -1.5600    0.0000 H       1  UNL1        0.1190
     22 H           6.5380   -1.5600    0.0000 H       1  UNL1        0.2099
     23 H           2.0000    0.0600    0.0000 H       1  UNL1        0.2951
     24 H          10.0021    0.0600    0.0000 H       1  UNL1        0.2546
     25 H           9.4651   -0.8700    0.0000 H       1  UNL1        0.2546
     26 H           9.1360    1.5600    0.0000 H       1  UNL1        0.2546
     27 H           8.0622    1.5600    0.0000 H       1  UNL1        0.2546
@<TRIPOS>BOND
     1     1     9    1
     2     1    22    1
     3     2    12    1
     4     2    23    1
     5     3    12    2
     6    10     4    1
     7     4    20    1
     8     4    21    1
     9     5    11    1
    10     5    13    2
    11     6    13    1
    12     6    24    1
    13     6    25    1
    14     7    13    1
    15     7    26    1
    16     7    27    1
    17     8     9    1
    18     8    10    1
    19     8    14    1
    20     8    15    1
    21     9    11    1
    22     9    16    1
    23    10    12    1
    24    10    17    1
    25    11    18    1
    26    11    19    1
