@<TRIPOS>MOLECULE
IMPHY009885
 28 28 0 0 0
SMALL
GASTEIGER

@<TRIPOS>ATOM
      1 O           2.8660   -1.7500    0.0000 O.3     1  UNL1       -0.4914
      2 O           4.5981   -2.7500    0.0000 O.3     1  UNL1       -0.4915
      3 C           4.5981    0.2500    0.0000 C.ar    1  UNL1       -0.0213
      4 C           3.7320   -1.2500    0.0000 C.ar    1  UNL1        0.1620
      5 C           4.5981   -1.7500    0.0000 C.ar    1  UNL1        0.1615
      6 C           3.7320   -0.2500    0.0000 C.ar    1  UNL1       -0.0092
      7 C           5.4641   -0.2500    0.0000 C.ar    1  UNL1       -0.0509
      8 C           5.4641   -1.2500    0.0000 C.ar    1  UNL1       -0.0157
      9 C           4.5981    1.2500    0.0000 C.2     1  UNL1       -0.0545
     10 C           5.4641    1.7500    0.0000 C.2     1  UNL1       -0.0617
     11 C           2.0000   -1.2500    0.0000 C.3     1  UNL1        0.0790
     12 C           5.4641   -3.2500    0.0000 C.3     1  UNL1        0.0790
     13 C           5.4641    2.7500    0.0000 C.2     1  UNL1       -0.0688
     14 C           6.3301    3.2500    0.0000 C.2     1  UNL1       -0.0987
     15 H           3.1951    0.0600    0.0000 H       1  UNL1        0.0661
     16 H           6.0010    0.0600    0.0000 H       1  UNL1        0.0625
     17 H           6.0010   -1.5600    0.0000 H       1  UNL1        0.0655
     18 H           4.0611    1.5600    0.0000 H       1  UNL1        0.0623
     19 H           6.0010    1.4400    0.0000 H       1  UNL1        0.0618
     20 H           2.3100   -0.7131    0.0000 H       1  UNL1        0.0660
     21 H           1.4631   -0.9400    0.0000 H       1  UNL1        0.0660
     22 H           1.6900   -1.7869    0.0000 H       1  UNL1        0.0660
     23 H           5.1541   -3.7869    0.0000 H       1  UNL1        0.0660
     24 H           6.0010   -3.5600    0.0000 H       1  UNL1        0.0660
     25 H           5.7741   -2.7131    0.0000 H       1  UNL1        0.0660
     26 H           4.9272    3.0600    0.0000 H       1  UNL1        0.0612
     27 H           6.8671    2.9400    0.0000 H       1  UNL1        0.0535
     28 H           6.3301    3.8700    0.0000 H       1  UNL1        0.0535
@<TRIPOS>BOND
     1     1     4    1
     2     1    11    1
     3     2     5    1
     4     2    12    1
     5     3     6   ar
     6     3     7   ar
     7     3     9    1
     8     4     5   ar
     9     4     6   ar
    10     5     8   ar
    11     6    15    1
    12     7     8   ar
    13     7    16    1
    14     8    17    1
    15     9    10    2
    16     9    18    1
    17    10    13    1
    18    10    19    1
    19    11    20    1
    20    11    21    1
    21    11    22    1
    22    12    23    1
    23    12    24    1
    24    12    25    1
    25    13    14    2
    26    13    26    1
    27    14    27    1
    28    14    28    1
