@<TRIPOS>MOLECULE
IMPHY013126
 63 63 0 0 0
SMALL
GASTEIGER

@<TRIPOS>ATOM
      1 O           3.7320   -4.2500    0.0000 O.3     1  UNL1       -0.4599
      2 O           2.8660   -2.7500    0.0000 O.2     1  UNL1       -0.2508
      3 C           7.1962    2.7500    0.0000 C.3     1  UNL1       -0.0531
      4 C           7.1962    1.7500    0.0000 C.3     1  UNL1       -0.0531
      5 C           8.0622    3.2500    0.0000 C.3     1  UNL1       -0.0531
      6 C           6.3301    1.2500    0.0000 C.3     1  UNL1       -0.0531
      7 C           8.0622    4.2500    0.0000 C.3     1  UNL1       -0.0531
      8 C           6.3301    0.2500    0.0000 C.3     1  UNL1       -0.0531
      9 C           8.9282    4.7500    0.0000 C.3     1  UNL1       -0.0531
     10 C           5.4641   -0.2500    0.0000 C.3     1  UNL1       -0.0530
     11 C           8.9282    5.7500    0.0000 C.3     1  UNL1       -0.0531
     12 C           5.4641   -1.2500    0.0000 C.3     1  UNL1       -0.0526
     13 C           9.7942    6.2500    0.0000 C.3     1  UNL1       -0.0533
     14 C           4.5981   -1.7500    0.0000 C.3     1  UNL1       -0.0430
     15 C           9.7942    7.2500    0.0000 C.3     1  UNL1       -0.0559
     16 C           4.5981   -2.7500    0.0000 C.3     1  UNL1        0.0449
     17 C          10.6603    7.7500    0.0000 C.3     1  UNL1       -0.0653
     18 C           3.7320   -3.2500    0.0000 C.2     1  UNL1        0.3074
     19 C           2.8660   -4.7500    0.0000 C.3     1  UNL1        0.1175
     20 C           2.8660   -5.7500    0.0000 C.ar    1  UNL1       -0.0103
     21 C           2.0000   -6.2500    0.0000 C.ar    1  UNL1       -0.0554
     22 C           3.7320   -6.2500    0.0000 C.ar    1  UNL1       -0.0554
     23 C           2.0000   -7.2500    0.0000 C.ar    1  UNL1       -0.0614
     24 C           3.7320   -7.2500    0.0000 C.ar    1  UNL1       -0.0614
     25 C           2.8660   -7.7500    0.0000 C.ar    1  UNL1       -0.0617
     26 H           6.9841    3.3326    0.0000 H       1  UNL1        0.0265
     27 H           6.5856    2.6423    0.0000 H       1  UNL1        0.0265
     28 H           7.4082    1.1674    0.0000 H       1  UNL1        0.0265
     29 H           7.8067    1.8577    0.0000 H       1  UNL1        0.0265
     30 H           8.2742    2.6674    0.0000 H       1  UNL1        0.0265
     31 H           8.6728    3.3577    0.0000 H       1  UNL1        0.0265
     32 H           6.1181    1.8326    0.0000 H       1  UNL1        0.0265
     33 H           5.7196    1.1423    0.0000 H       1  UNL1        0.0265
     34 H           7.8501    4.8326    0.0000 H       1  UNL1        0.0265
     35 H           7.4516    4.1423    0.0000 H       1  UNL1        0.0265
     36 H           6.5422   -0.3326    0.0000 H       1  UNL1        0.0265
     37 H           6.9407    0.3577    0.0000 H       1  UNL1        0.0265
     38 H           9.1403    4.1674    0.0000 H       1  UNL1        0.0265
     39 H           9.5388    4.8577    0.0000 H       1  UNL1        0.0265
     40 H           5.2520    0.3326    0.0000 H       1  UNL1        0.0265
     41 H           4.8535   -0.3577    0.0000 H       1  UNL1        0.0265
     42 H           8.7162    6.3326    0.0000 H       1  UNL1        0.0265
     43 H           8.3176    5.6423    0.0000 H       1  UNL1        0.0265
     44 H           5.6762   -1.8326    0.0000 H       1  UNL1        0.0265
     45 H           6.0747   -1.1423    0.0000 H       1  UNL1        0.0265
     46 H          10.0063    5.6674    0.0000 H       1  UNL1        0.0265
     47 H          10.4048    6.3577    0.0000 H       1  UNL1        0.0265
     48 H           4.3860   -1.1674    0.0000 H       1  UNL1        0.0270
     49 H           3.9875   -1.8577    0.0000 H       1  UNL1        0.0270
     50 H           9.5822    7.8326    0.0000 H       1  UNL1        0.0263
     51 H           9.1836    7.1423    0.0000 H       1  UNL1        0.0263
     52 H           4.8101   -3.3326    0.0000 H       1  UNL1        0.0377
     53 H           5.2087   -2.6423    0.0000 H       1  UNL1        0.0377
     54 H          10.9703    7.2131    0.0000 H       1  UNL1        0.0230
     55 H          11.1972    8.0600    0.0000 H       1  UNL1        0.0230
     56 H          10.3503    8.2869    0.0000 H       1  UNL1        0.0230
     57 H           2.6540   -4.1674    0.0000 H       1  UNL1        0.0749
     58 H           2.2554   -4.8577    0.0000 H       1  UNL1        0.0749
     59 H           1.4631   -5.9400    0.0000 H       1  UNL1        0.0621
     60 H           4.2690   -5.9400    0.0000 H       1  UNL1        0.0621
     61 H           1.4631   -7.5600    0.0000 H       1  UNL1        0.0618
     62 H           4.2690   -7.5600    0.0000 H       1  UNL1        0.0618
     63 H           2.8660   -8.3700    0.0000 H       1  UNL1        0.0618
@<TRIPOS>BOND
     1     1    18    1
     2     1    19    1
     3     2    18    2
     4     3     4    1
     5     3     5    1
     6     3    26    1
     7     3    27    1
     8     4     6    1
     9     4    28    1
    10     4    29    1
    11     5     7    1
    12     5    30    1
    13     5    31    1
    14     6     8    1
    15     6    32    1
    16     6    33    1
    17     7     9    1
    18     7    34    1
    19     7    35    1
    20     8    10    1
    21     8    36    1
    22     8    37    1
    23     9    11    1
    24     9    38    1
    25     9    39    1
    26    10    12    1
    27    10    40    1
    28    10    41    1
    29    11    13    1
    30    11    42    1
    31    11    43    1
    32    12    14    1
    33    12    44    1
    34    12    45    1
    35    13    15    1
    36    13    46    1
    37    13    47    1
    38    14    16    1
    39    14    48    1
    40    14    49    1
    41    15    17    1
    42    15    50    1
    43    15    51    1
    44    16    18    1
    45    16    52    1
    46    16    53    1
    47    17    54    1
    48    17    55    1
    49    17    56    1
    50    19    20    1
    51    19    57    1
    52    19    58    1
    53    20    21   ar
    54    20    22   ar
    55    21    23   ar
    56    21    59    1
    57    22    24   ar
    58    22    60    1
    59    23    25   ar
    60    23    61    1
    61    24    25   ar
    62    24    62    1
    63    25    63    1
