@<TRIPOS>MOLECULE
IMPHY017342
 37 39 0 0 0
SMALL
GASTEIGER

@<TRIPOS>ATOM
      1 O           2.9582   -0.5384    0.0000 O.3     1  UNL1       -0.4567
      2 O           2.4280    0.5439    0.0000 O.2     1  UNL1       -0.2505
      3 C           3.1974    0.0587    0.0000 C.3     1  UNL1        0.0049
      4 C           5.2219    1.0336    0.0000 C.3     1  UNL1       -0.0244
      5 C           4.0984   -0.3752    0.0000 C.2     1  UNL1       -0.0596
      6 C           4.9994    0.0587    0.0000 C.3     1  UNL1       -0.0272
      7 C           2.5124   -0.6616    0.0000 C.3     1  UNL1       -0.0015
      8 C           2.9842   -1.5366    0.0000 C.3     1  UNL1        0.1250
      9 C           3.9624   -1.3600    0.0000 C.2     1  UNL1       -0.0328
     10 C           4.5984    1.8154    0.0000 C.3     1  UNL1       -0.0455
     11 C           4.2296    0.9219    0.0000 C.3     1  UNL1        0.0568
     12 C           2.9749    1.0336    0.0000 C.2     1  UNL1       -0.0694
     13 C           3.5984    1.8154    0.0000 C.3     1  UNL1       -0.0311
     14 C           3.4095    0.3523    0.0000 C.2     1  UNL1        0.3108
     15 C           4.6840   -2.0523    0.0000 C.3     1  UNL1       -0.0401
     16 C           4.0181    2.0523    0.0000 C.3     1  UNL1       -0.0520
     17 C           2.0000    1.2561    0.0000 C.2     1  UNL1       -0.0989
     18 H           2.5996    0.2228    0.0000 H       1  UNL1        0.0392
     19 H           5.8264    1.1715    0.0000 H       1  UNL1        0.0312
     20 H           5.1374   -0.5458    0.0000 H       1  UNL1        0.0313
     21 H           5.6194    0.0587    0.0000 H       1  UNL1        0.0313
     22 H           2.1105   -0.1895    0.0000 H       1  UNL1        0.0313
     23 H           2.0006   -1.0116    0.0000 H       1  UNL1        0.0313
     24 H           2.7152   -2.0952    0.0000 H       1  UNL1        0.0782
     25 H           5.1570    2.0844    0.0000 H       1  UNL1        0.0271
     26 H           4.4604    2.4199    0.0000 H       1  UNL1        0.0271
     27 H           3.6560    1.1573    0.0000 H       1  UNL1        0.0413
     28 H           3.7364    2.4199    0.0000 H       1  UNL1        0.0310
     29 H           3.0398    2.0844    0.0000 H       1  UNL1        0.0310
     30 H           4.2548   -2.4997    0.0000 H       1  UNL1        0.0276
     31 H           5.1314   -2.4815    0.0000 H       1  UNL1        0.0276
     32 H           5.1132   -1.6049    0.0000 H       1  UNL1        0.0276
     33 H           4.6275    2.1663    0.0000 H       1  UNL1        0.0238
     34 H           3.9040    2.6617    0.0000 H       1  UNL1        0.0238
     35 H           3.4087    1.9382    0.0000 H       1  UNL1        0.0238
     36 H           1.8172    1.8486    0.0000 H       1  UNL1        0.0535
     37 H           1.5783    0.8016    0.0000 H       1  UNL1        0.0535
@<TRIPOS>BOND
     1     1     8    1
     2     1    14    1
     3     2    14    2
     4     3     5    1
     5     3     7    1
     6     3    12    1
     7     3    18    1
     8     4     6    1
     9     4    10    1
    10     4    11    1
    11     4    19    1
    12     5     6    1
    13     5     9    2
    14     6    20    1
    15     6    21    1
    16     7     8    1
    17     7    22    1
    18     7    23    1
    19     8     9    1
    20     8    24    1
    21     9    15    1
    22    10    13    1
    23    10    25    1
    24    10    26    1
    25    11    14    1
    26    11    16    1
    27    11    27    1
    28    12    13    1
    29    12    17    2
    30    13    28    1
    31    13    29    1
    32    15    30    1
    33    15    31    1
    34    15    32    1
    35    16    33    1
    36    16    34    1
    37    16    35    1
    38    17    36    1
    39    17    37    1
