@<TRIPOS>MOLECULE
IMPHY015587
 30 30 0 0 0
SMALL
GASTEIGER

@<TRIPOS>ATOM
      1 C           3.7320    0.2500    0.0000 C.3     1  UNL1       -0.0385
      2 C           2.8660   -0.2500    0.0000 C.3     1  UNL1       -0.0474
      3 C           2.8660   -1.2500    0.0000 C.3     1  UNL1       -0.0436
      4 C           4.5981   -0.2500    0.0000 C.3     1  UNL1       -0.0500
      5 C           3.7320   -1.7500    0.0000 C.3     1  UNL1       -0.0504
      6 C           3.7320    1.2500    0.0000 C.3     1  UNL1       -0.0439
      7 C           4.5981   -1.2500    0.0000 C.3     1  UNL1       -0.0526
      8 C           2.0000   -1.7500    0.0000 C.3     1  UNL1       -0.0624
      9 C           4.5981    1.7500    0.0000 C.3     1  UNL1       -0.0624
     10 C           2.8660    1.7500    0.0000 C.3     1  UNL1       -0.0624
     11 H           4.2690    0.5600    0.0000 H       1  UNL1        0.0303
     12 H           2.6540    0.3326    0.0000 H       1  UNL1        0.0271
     13 H           2.2554   -0.3577    0.0000 H       1  UNL1        0.0271
     14 H           2.8660   -1.8700    0.0000 H       1  UNL1        0.0298
     15 H           5.2087   -0.3577    0.0000 H       1  UNL1        0.0268
     16 H           4.8101    0.3326    0.0000 H       1  UNL1        0.0268
     17 H           3.3335   -2.2250    0.0000 H       1  UNL1        0.0268
     18 H           4.1306   -2.2250    0.0000 H       1  UNL1        0.0268
     19 H           3.7320    1.8700    0.0000 H       1  UNL1        0.0298
     20 H           4.8101   -1.8326    0.0000 H       1  UNL1        0.0265
     21 H           5.2087   -1.1423    0.0000 H       1  UNL1        0.0265
     22 H           1.6900   -1.2131    0.0000 H       1  UNL1        0.0232
     23 H           1.4631   -2.0600    0.0000 H       1  UNL1        0.0232
     24 H           2.3100   -2.2869    0.0000 H       1  UNL1        0.0232
     25 H           4.9081    1.2131    0.0000 H       1  UNL1        0.0232
     26 H           5.1350    2.0600    0.0000 H       1  UNL1        0.0232
     27 H           4.2881    2.2869    0.0000 H       1  UNL1        0.0232
     28 H           3.1760    2.2869    0.0000 H       1  UNL1        0.0232
     29 H           2.3291    2.0600    0.0000 H       1  UNL1        0.0232
     30 H           2.5560    1.2131    0.0000 H       1  UNL1        0.0232
@<TRIPOS>BOND
     1     1     2    1
     2     1     4    1
     3     1     6    1
     4     1    11    1
     5     2     3    1
     6     2    12    1
     7     2    13    1
     8     3     5    1
     9     3     8    1
    10     3    14    1
    11     4     7    1
    12     4    15    1
    13     4    16    1
    14     5     7    1
    15     5    17    1
    16     5    18    1
    17     6     9    1
    18     6    10    1
    19     6    19    1
    20     7    20    1
    21     7    21    1
    22     8    22    1
    23     8    23    1
    24     8    24    1
    25     9    25    1
    26     9    26    1
    27     9    27    1
    28    10    28    1
    29    10    29    1
    30    10    30    1
