@<TRIPOS>MOLECULE
IMPHY001124
 60 65 0 0 0
SMALL
GASTEIGER

@<TRIPOS>ATOM
      1 O           5.1919    1.3444    0.0000 O.3     1  UNL1       -0.4602
      2 O           9.0656   -0.2434    0.0000 O.3     1  UNL1       -0.3769
      3 O           6.4175    2.5682    0.0000 O.2     1  UNL1       -0.2512
      4 O           3.2872    1.6937    0.0000 O.2     1  UNL1       -0.2924
      5 N           7.5642   -0.8097    0.0000 N.3     1  UNL1       -0.2693
      6 N           5.4743   -1.7652    0.0000 N.pl3   1  UNL1       -0.3272
      7 C           5.8997   -0.4559    0.0000 C.3     1  UNL1        0.0560
      8 C           7.8706    0.6318    0.0000 C.3     1  UNL1        0.0160
      9 C           7.3012   -0.0005    0.0000 C.3     1  UNL1        0.0205
     10 C           6.9948   -1.4420    0.0000 C.3     1  UNL1        0.0327
     11 C           8.0900   -2.4281    0.0000 C.3     1  UNL1       -0.0255
     12 C           6.1626   -1.2651    0.0000 C.3     1  UNL1        0.0519
     13 C           5.8985    0.6368    0.0000 C.3     1  UNL1        0.1189
     14 C           6.4690    0.1764    0.0000 C.3     1  UNL1       -0.0219
     15 C           7.2578   -2.2512    0.0000 C.3     1  UNL1       -0.0319
     16 C           8.6593   -1.7958    0.0000 C.3     1  UNL1        0.0018
     17 C           8.3964   -0.9866    0.0000 C.3     1  UNL1        0.1123
     18 C           5.0488   -0.4559    0.0000 C.ar    1  UNL1       -0.0141
     19 C           4.7859   -1.2651    0.0000 C.ar    1  UNL1        0.0337
     20 C           9.6375   -2.0037    0.0000 C.3     1  UNL1       -0.0492
     21 C           4.4795    0.1764    0.0000 C.ar    1  UNL1       -0.0456
     22 C           5.4827   -2.7651    0.0000 C.3     1  UNL1        0.0011
     23 C           3.9537   -1.4420    0.0000 C.ar    1  UNL1       -0.0397
     24 C           9.9465   -2.9547    0.0000 C.3     1  UNL1       -0.0649
     25 C           5.4514    2.3101    0.0000 C.2     1  UNL1        0.3042
     26 C           3.6473   -0.0005    0.0000 C.ar    1  UNL1        0.0175
     27 C           3.3844   -0.8097    0.0000 C.ar    1  UNL1       -0.0495
     28 C           4.7448    3.0177    0.0000 C.3     1  UNL1        0.0332
     29 C           2.9782    0.7427    0.0000 C.2     1  UNL1        0.1601
     30 C           2.0000    0.5348    0.0000 C.3     1  UNL1       -0.0014
     31 H           8.4505    1.2533    0.0000 H       1  UNL1        0.0355
     32 H           7.1190    0.8298    0.0000 H       1  UNL1        0.0468
     33 H           6.5444   -2.1628    0.0000 H       1  UNL1        0.0482
     34 H           8.3527   -3.2365    0.0000 H       1  UNL1        0.0309
     35 H           6.0156   -2.1022    0.0000 H       1  UNL1        0.0525
     36 H           5.3257    0.3994    0.0000 H       1  UNL1        0.0747
     37 H           6.7012    0.7513    0.0000 H       1  UNL1        0.0291
     38 H           5.9432    0.5050    0.0000 H       1  UNL1        0.0291
     39 H           6.6438   -2.3374    0.0000 H       1  UNL1        0.0284
     40 H           7.2361   -2.8708    0.0000 H       1  UNL1        0.0284
     41 H           8.8509   -2.3854    0.0000 H       1  UNL1        0.0342
     42 H           9.0029   -1.1155    0.0000 H       1  UNL1        0.0770
     43 H          10.2514   -1.9174    0.0000 H       1  UNL1        0.0267
     44 H           9.6591   -1.3841    0.0000 H       1  UNL1        0.0267
     45 H           4.6711    0.7661    0.0000 H       1  UNL1        0.0628
     46 H           4.8627   -2.7704    0.0000 H       1  UNL1        0.0428
     47 H           5.4879   -3.3851    0.0000 H       1  UNL1        0.0428
     48 H           6.1027   -2.7599    0.0000 H       1  UNL1        0.0428
     49 H           9.6720   -0.3723    0.0000 H       1  UNL1        0.2115
     50 H           3.7621   -2.0316    0.0000 H       1  UNL1        0.0636
     51 H           9.3568   -3.1463    0.0000 H       1  UNL1        0.0230
     52 H          10.1381   -3.5444    0.0000 H       1  UNL1        0.0230
     53 H          10.5361   -2.7632    0.0000 H       1  UNL1        0.0230
     54 H           2.7779   -0.9386    0.0000 H       1  UNL1        0.0625
     55 H           5.1835    3.4558    0.0000 H       1  UNL1        0.0342
     56 H           4.3067    3.4564    0.0000 H       1  UNL1        0.0342
     57 H           4.3061    2.5796    0.0000 H       1  UNL1        0.0342
     58 H           1.8711    1.1412    0.0000 H       1  UNL1        0.0309
     59 H           1.3936    0.4059    0.0000 H       1  UNL1        0.0309
     60 H           2.1289   -0.0717    0.0000 H       1  UNL1        0.0309
@<TRIPOS>BOND
     1    13     1    1
     2     1    25    1
     3    17     2    1
     4     2    49    1
     5     3    25    2
     6     4    29    2
     7     5     9    1
     8     5    10    1
     9     5    17    1
    10     6    12    1
    11     6    19    1
    12     6    22    1
    13     7    12    1
    14     7    13    1
    15     7    14    1
    16     7    18    1
    17     8     9    1
    18     8    11    1
    19     8    13    1
    20     8    31    1
    21     9    14    1
    22     9    32    1
    23    10    12    1
    24    10    15    1
    25    10    33    1
    26    11    15    1
    27    11    16    1
    28    11    34    1
    29    12    35    1
    30    13    36    1
    31    14    37    1
    32    14    38    1
    33    15    39    1
    34    15    40    1
    35    16    17    1
    36    16    20    1
    37    16    41    1
    38    17    42    1
    39    18    19   ar
    40    18    21   ar
    41    19    23   ar
    42    20    24    1
    43    20    43    1
    44    20    44    1
    45    21    26   ar
    46    21    45    1
    47    22    46    1
    48    22    47    1
    49    22    48    1
    50    23    27   ar
    51    23    50    1
    52    24    51    1
    53    24    52    1
    54    24    53    1
    55    25    28    1
    56    26    27   ar
    57    26    29    1
    58    27    54    1
    59    28    55    1
    60    28    56    1
    61    28    57    1
    62    29    30    1
    63    30    58    1
    64    30    59    1
    65    30    60    1
