@<TRIPOS>MOLECULE
IMPHY016761
 35 35 0 0 0
SMALL
GASTEIGER

@<TRIPOS>ATOM
      1 O           2.8660    0.5000    0.0000 O.3     1  UNL1       -0.4887
      2 O           2.8660   -2.5000    0.0000 O.co2   1  UNL1       -0.5759
      3 O           2.0000   -1.0000    0.0000 O.2     1  UNL1        0.0416
      4 O           7.1962   -1.0000    0.0000 O.co2   1  UNL1       -0.5760
      5 O           6.3301   -2.5000    0.0000 O.2     1  UNL1        0.0415
      6 N           2.8660   -1.5000    0.0000 N.pl3   1  UNL1        0.0839
      7 N           6.3301   -1.5000    0.0000 N.pl3   1  UNL1        0.0801
      8 C           4.5981    1.5000    0.0000 C.3     1  UNL1       -0.0088
      9 C           4.5981    0.5000    0.0000 C.ar    1  UNL1        0.0128
     10 C           4.5981    2.5000    0.0000 C.3     1  UNL1       -0.0559
     11 C           5.5981    1.5000    0.0000 C.3     1  UNL1       -0.0559
     12 C           3.5981    1.5000    0.0000 C.3     1  UNL1       -0.0559
     13 C           3.7320    0.0000    0.0000 C.ar    1  UNL1        0.2017
     14 C           5.4641    0.0000    0.0000 C.ar    1  UNL1        0.0235
     15 C           3.7320   -1.0000    0.0000 C.ar    1  UNL1        0.3238
     16 C           4.5981   -1.5000    0.0000 C.ar    1  UNL1        0.1071
     17 C           5.4641   -1.0000    0.0000 C.ar    1  UNL1        0.2830
     18 C           4.5981   -2.5000    0.0000 C.3     1  UNL1       -0.0266
     19 C           2.0000    0.0000    0.0000 C.3     1  UNL1        0.0791
     20 H           5.2181    2.5000    0.0000 H       1  UNL1        0.0238
     21 H           4.5981    3.1200    0.0000 H       1  UNL1        0.0238
     22 H           3.9781    2.5000    0.0000 H       1  UNL1        0.0238
     23 H           5.5981    0.8800    0.0000 H       1  UNL1        0.0238
     24 H           6.2181    1.5000    0.0000 H       1  UNL1        0.0238
     25 H           5.5981    2.1200    0.0000 H       1  UNL1        0.0238
     26 H           3.5981    2.1200    0.0000 H       1  UNL1        0.0238
     27 H           2.9781    1.5000    0.0000 H       1  UNL1        0.0238
     28 H           3.5981    0.8800    0.0000 H       1  UNL1        0.0238
     29 H           6.0010    0.3100    0.0000 H       1  UNL1        0.0689
     30 H           3.9781   -2.5000    0.0000 H       1  UNL1        0.0282
     31 H           4.5981   -3.1200    0.0000 H       1  UNL1        0.0282
     32 H           5.2181   -2.5000    0.0000 H       1  UNL1        0.0282
     33 H           1.6900    0.5369    0.0000 H       1  UNL1        0.0660
     34 H           1.4631   -0.3100    0.0000 H       1  UNL1        0.0660
     35 H           2.3100   -0.5369    0.0000 H       1  UNL1        0.0660
@<TRIPOS>UNITY_ATOM_ATTR
2 1
charge -1
4 1
charge -1
6 1
charge 1
7 1
charge 1
@<TRIPOS>BOND
     1     1    13    1
     2     1    19    1
     3     2     6    1
     4     3     6    2
     5     4     7    1
     6     5     7    2
     7     6    15    1
     8     7    17    1
     9     8     9    1
    10     8    10    1
    11     8    11    1
    12     8    12    1
    13     9    13   ar
    14     9    14   ar
    15    10    20    1
    16    10    21    1
    17    10    22    1
    18    11    23    1
    19    11    24    1
    20    11    25    1
    21    12    26    1
    22    12    27    1
    23    12    28    1
    24    13    15   ar
    25    14    17   ar
    26    14    29    1
    27    15    16   ar
    28    16    17   ar
    29    16    18    1
    30    18    30    1
    31    18    31    1
    32    18    32    1
    33    19    33    1
    34    19    34    1
    35    19    35    1
