@<TRIPOS>MOLECULE
IMPHY015770
 26 25 0 0 0
SMALL
GASTEIGER

@<TRIPOS>ATOM
      1 O           5.4641    0.7500    0.0000 O.3     1  UNL1       -0.4619
      2 O           4.5981   -0.7500    0.0000 O.2     1  UNL1       -0.2508
      3 C           2.8660    0.2500    0.0000 C.3     1  UNL1       -0.0367
      4 C           3.7320    0.7500    0.0000 C.3     1  UNL1        0.0473
      5 C           2.0000    0.7500    0.0000 C.3     1  UNL1       -0.0622
      6 C           2.8660   -0.7500    0.0000 C.3     1  UNL1       -0.0622
      7 C           6.3301    0.2500    0.0000 C.3     1  UNL1        0.0975
      8 C           4.5981    0.2500    0.0000 C.2     1  UNL1        0.3076
      9 C           7.1962    0.7500    0.0000 C.3     1  UNL1       -0.0280
     10 C           6.3301   -0.7500    0.0000 C.3     1  UNL1       -0.0280
     11 H           2.8660    0.8700    0.0000 H       1  UNL1        0.0301
     12 H           4.1306    1.2250    0.0000 H       1  UNL1        0.0380
     13 H           3.3335    1.2250    0.0000 H       1  UNL1        0.0380
     14 H           2.3100    1.2869    0.0000 H       1  UNL1        0.0232
     15 H           1.4631    1.0600    0.0000 H       1  UNL1        0.0232
     16 H           1.6900    0.2131    0.0000 H       1  UNL1        0.0232
     17 H           2.2460   -0.7500    0.0000 H       1  UNL1        0.0232
     18 H           2.8660   -1.3700    0.0000 H       1  UNL1        0.0232
     19 H           3.4860   -0.7500    0.0000 H       1  UNL1        0.0232
     20 H           5.7932   -0.0600    0.0000 H       1  UNL1        0.0728
     21 H           7.5062    0.2131    0.0000 H       1  UNL1        0.0265
     22 H           7.7331    1.0600    0.0000 H       1  UNL1        0.0265
     23 H           6.8862    1.2869    0.0000 H       1  UNL1        0.0265
     24 H           5.7101   -0.7500    0.0000 H       1  UNL1        0.0265
     25 H           6.3301   -1.3700    0.0000 H       1  UNL1        0.0265
     26 H           6.9501   -0.7500    0.0000 H       1  UNL1        0.0265
@<TRIPOS>BOND
     1     1     7    1
     2     1     8    1
     3     2     8    2
     4     3     4    1
     5     3     5    1
     6     3     6    1
     7     3    11    1
     8     4     8    1
     9     4    12    1
    10     4    13    1
    11     5    14    1
    12     5    15    1
    13     5    16    1
    14     6    17    1
    15     6    18    1
    16     6    19    1
    17     7     9    1
    18     7    10    1
    19     7    20    1
    20     9    21    1
    21     9    22    1
    22     9    23    1
    23    10    24    1
    24    10    25    1
    25    10    26    1
