@<TRIPOS>MOLECULE
IMPHY016841
 49 51 0 0 0
SMALL
GASTEIGER

@<TRIPOS>ATOM
      1 O           6.4421    0.6754    0.0000 O.2     1  UNL1       -0.4905
      2 C           3.8000    0.1686    0.0000 C.3     1  UNL1       -0.0220
      3 C           3.8000   -0.8314    0.0000 C.3     1  UNL1       -0.0300
      4 C           4.6660    0.6686    0.0000 C.3     1  UNL1        0.0078
      5 C           2.9061   -1.3661    0.0000 C.3     1  UNL1       -0.0315
      6 C           5.5321    0.1686    0.0000 C.3     1  UNL1        0.1110
      7 C           2.9061    0.7032    0.0000 C.3     1  UNL1       -0.0469
      8 C           4.6660   -1.3314    0.0000 C.3     1  UNL1       -0.0456
      9 C           5.5321   -0.8314    0.0000 C.3     1  UNL1       -0.0126
     10 C           2.0000   -0.8522    0.0000 C.3     1  UNL1       -0.0476
     11 C           2.0000    0.1894    0.0000 C.3     1  UNL1       -0.0521
     12 C           3.8000    1.1686    0.0000 C.3     1  UNL1       -0.0589
     13 C           4.6500    1.7101    0.0000 C.3     1  UNL1       -0.0244
     14 C           2.4161   -2.2378    0.0000 C.3     1  UNL1       -0.0595
     15 C           3.4160   -2.2263    0.0000 C.3     1  UNL1       -0.0595
     16 C           6.3981   -0.3314    0.0000 C.3     1  UNL1       -0.0247
     17 C           5.5480    2.2378    0.0000 C.2     1  UNL1       -0.0463
     18 C           6.4501    1.7170    0.0000 C.2     1  UNL1        0.0915
     19 C           7.3180    2.2137    0.0000 C.3     1  UNL1       -0.0072
     20 H           3.8066   -1.6814    0.0000 H       1  UNL1        0.0311
     21 H           5.3989    1.0992    0.0000 H       1  UNL1        0.0348
     22 H           3.3107    1.1730    0.0000 H       1  UNL1        0.0271
     23 H           2.5124    1.1822    0.0000 H       1  UNL1        0.0271
     24 H           4.2675   -1.8064    0.0000 H       1  UNL1        0.0270
     25 H           5.0646   -1.8064    0.0000 H       1  UNL1        0.0270
     26 H           5.7441   -1.4140    0.0000 H       1  UNL1        0.0304
     27 H           6.1426   -0.7238    0.0000 H       1  UNL1        0.0304
     28 H           1.3891   -0.7461    0.0000 H       1  UNL1        0.0271
     29 H           1.7909   -1.4359    0.0000 H       1  UNL1        0.0271
     30 H           1.7909    0.7731    0.0000 H       1  UNL1        0.0266
     31 H           1.3891    0.0833    0.0000 H       1  UNL1        0.0266
     32 H           4.4200    1.1686    0.0000 H       1  UNL1        0.0235
     33 H           3.8000    1.7886    0.0000 H       1  UNL1        0.0235
     34 H           3.1800    1.1686    0.0000 H       1  UNL1        0.0235
     35 H           4.4319    2.2905    0.0000 H       1  UNL1        0.0313
     36 H           4.0408    1.5946    0.0000 H       1  UNL1        0.0313
     37 H           1.8756   -1.9341    0.0000 H       1  UNL1        0.0235
     38 H           2.1123   -2.7783    0.0000 H       1  UNL1        0.0235
     39 H           2.9566   -2.5416    0.0000 H       1  UNL1        0.0235
     40 H           2.8827   -2.5425    0.0000 H       1  UNL1        0.0235
     41 H           3.7322   -2.7596    0.0000 H       1  UNL1        0.0235
     42 H           3.9494   -1.9101    0.0000 H       1  UNL1        0.0235
     43 H           6.0881   -0.8684    0.0000 H       1  UNL1        0.0268
     44 H           6.9350   -0.6414    0.0000 H       1  UNL1        0.0268
     45 H           6.7081    0.2055    0.0000 H       1  UNL1        0.0268
     46 H           5.5456    2.8578    0.0000 H       1  UNL1        0.0605
     47 H           7.6260    1.6756    0.0000 H       1  UNL1        0.0307
     48 H           7.8562    2.5216    0.0000 H       1  UNL1        0.0307
     49 H           7.0101    2.7518    0.0000 H       1  UNL1        0.0307
@<TRIPOS>BOND
     1     1     6    1
     2     1    18    1
     3     2     3    1
     4     2     4    1
     5     2     7    1
     6     2    12    1
     7     3     5    1
     8     3     8    1
     9     3    20    1
    10     4     6    1
    11     4    13    1
    12     4    21    1
    13     5    10    1
    14     5    14    1
    15     5    15    1
    16     6     9    1
    17     6    16    1
    18     7    11    1
    19     7    22    1
    20     7    23    1
    21     8     9    1
    22     8    24    1
    23     8    25    1
    24     9    26    1
    25     9    27    1
    26    10    11    1
    27    10    28    1
    28    10    29    1
    29    11    30    1
    30    11    31    1
    31    12    32    1
    32    12    33    1
    33    12    34    1
    34    13    17    1
    35    13    35    1
    36    13    36    1
    37    14    37    1
    38    14    38    1
    39    14    39    1
    40    15    40    1
    41    15    41    1
    42    15    42    1
    43    16    43    1
    44    16    44    1
    45    16    45    1
    46    17    18    2
    47    17    46    1
    48    18    19    1
    49    19    47    1
    50    19    48    1
    51    19    49    1
