@<TRIPOS>MOLECULE
IMPHY016987
 48 47 0 0 0
SMALL
GASTEIGER

@<TRIPOS>ATOM
      1 O           8.9282    0.7500    0.0000 O.3     1  UNL1       -0.4646
      2 O           9.7942   -0.7500    0.0000 O.2     1  UNL1       -0.2509
      3 C           6.3301    0.2500    0.0000 C.3     1  UNL1       -0.0405
      4 C           5.4641    0.7500    0.0000 C.3     1  UNL1       -0.0469
      5 C           7.1962    0.7500    0.0000 C.3     1  UNL1       -0.0159
      6 C           4.5981    0.2500    0.0000 C.3     1  UNL1       -0.0343
      7 C           6.3301   -0.7500    0.0000 C.3     1  UNL1       -0.0623
      8 C           8.0622    0.2500    0.0000 C.3     1  UNL1        0.0927
      9 C           3.7320    0.7500    0.0000 C.2     1  UNL1       -0.0853
     10 C          11.5263    0.2500    0.0000 C.3     1  UNL1       -0.0430
     11 C          12.3923    0.7500    0.0000 C.3     1  UNL1       -0.0528
     12 C          10.6603    0.7500    0.0000 C.3     1  UNL1        0.0449
     13 C           9.7942    0.2500    0.0000 C.2     1  UNL1        0.3071
     14 C          13.2583    0.2500    0.0000 C.3     1  UNL1       -0.0559
     15 C           2.8660    0.2500    0.0000 C.2     1  UNL1       -0.0796
     16 C          14.1244    0.7500    0.0000 C.3     1  UNL1       -0.0653
     17 C           2.0000    0.7500    0.0000 C.3     1  UNL1       -0.0440
     18 C           2.8660   -0.7500    0.0000 C.3     1  UNL1       -0.0440
     19 H           6.8671   -0.0600    0.0000 H       1  UNL1        0.0299
     20 H           5.8626    1.2250    0.0000 H       1  UNL1        0.0271
     21 H           5.0656    1.2250    0.0000 H       1  UNL1        0.0271
     22 H           7.5947    1.2250    0.0000 H       1  UNL1        0.0301
     23 H           6.7976    1.2250    0.0000 H       1  UNL1        0.0301
     24 H           4.1996   -0.2249    0.0000 H       1  UNL1        0.0307
     25 H           4.9966   -0.2249    0.0000 H       1  UNL1        0.0307
     26 H           5.7101   -0.7500    0.0000 H       1  UNL1        0.0232
     27 H           6.3301   -1.3700    0.0000 H       1  UNL1        0.0232
     28 H           6.9501   -0.7500    0.0000 H       1  UNL1        0.0232
     29 H           7.6636   -0.2249    0.0000 H       1  UNL1        0.0697
     30 H           8.4607   -0.2249    0.0000 H       1  UNL1        0.0697
     31 H           3.7320    1.3700    0.0000 H       1  UNL1        0.0571
     32 H          11.1278   -0.2249    0.0000 H       1  UNL1        0.0270
     33 H          11.9248   -0.2249    0.0000 H       1  UNL1        0.0270
     34 H          12.7908    1.2250    0.0000 H       1  UNL1        0.0265
     35 H          11.9938    1.2250    0.0000 H       1  UNL1        0.0265
     36 H          11.0588    1.2250    0.0000 H       1  UNL1        0.0377
     37 H          10.2617    1.2250    0.0000 H       1  UNL1        0.0377
     38 H          12.8598   -0.2249    0.0000 H       1  UNL1        0.0263
     39 H          13.6569   -0.2249    0.0000 H       1  UNL1        0.0263
     40 H          14.4344    0.2131    0.0000 H       1  UNL1        0.0230
     41 H          14.6613    1.0600    0.0000 H       1  UNL1        0.0230
     42 H          13.8144    1.2869    0.0000 H       1  UNL1        0.0230
     43 H           2.3100    1.2869    0.0000 H       1  UNL1        0.0274
     44 H           1.4631    1.0600    0.0000 H       1  UNL1        0.0274
     45 H           1.6900    0.2131    0.0000 H       1  UNL1        0.0274
     46 H           2.2460   -0.7500    0.0000 H       1  UNL1        0.0274
     47 H           2.8660   -1.3700    0.0000 H       1  UNL1        0.0274
     48 H           3.4860   -0.7500    0.0000 H       1  UNL1        0.0274
@<TRIPOS>BOND
     1     1     8    1
     2     1    13    1
     3     2    13    2
     4     3     4    1
     5     3     5    1
     6     3     7    1
     7     3    19    1
     8     4     6    1
     9     4    20    1
    10     4    21    1
    11     5     8    1
    12     5    22    1
    13     5    23    1
    14     6     9    1
    15     6    24    1
    16     6    25    1
    17     7    26    1
    18     7    27    1
    19     7    28    1
    20     8    29    1
    21     8    30    1
    22     9    15    2
    23     9    31    1
    24    10    11    1
    25    10    12    1
    26    10    32    1
    27    10    33    1
    28    11    14    1
    29    11    34    1
    30    11    35    1
    31    12    13    1
    32    12    36    1
    33    12    37    1
    34    14    16    1
    35    14    38    1
    36    14    39    1
    37    15    17    1
    38    15    18    1
    39    16    40    1
    40    16    41    1
    41    16    42    1
    42    17    43    1
    43    17    44    1
    44    17    45    1
    45    18    46    1
    46    18    47    1
    47    18    48    1
