@<TRIPOS>MOLECULE
IMPHY015666
 22 21 0 0 0
SMALL
GASTEIGER

@<TRIPOS>ATOM
      1 O           3.7320    0.2500    0.0000 O.3     1  UNL1       -0.4649
      2 O           4.5981   -1.2500    0.0000 O.2     1  UNL1       -0.2508
      3 O           7.1962    1.2500    0.0000 O.2     1  UNL1       -0.2977
      4 C           5.4641    0.2500    0.0000 C.3     1  UNL1        0.0516
      5 C           6.3301   -0.2500    0.0000 C.3     1  UNL1        0.0156
      6 C           7.1962    0.2500    0.0000 C.2     1  UNL1        0.1308
      7 C           4.5981   -0.2500    0.0000 C.2     1  UNL1        0.3075
      8 C           2.8660   -0.2500    0.0000 C.3     1  UNL1        0.0896
      9 C           8.0622   -0.2500    0.0000 C.3     1  UNL1       -0.0061
     10 C           2.0000    0.2500    0.0000 C.3     1  UNL1       -0.0306
     11 H           5.8626    0.7249    0.0000 H       1  UNL1        0.0382
     12 H           5.0656    0.7249    0.0000 H       1  UNL1        0.0382
     13 H           5.9316   -0.7249    0.0000 H       1  UNL1        0.0347
     14 H           6.7287   -0.7249    0.0000 H       1  UNL1        0.0347
     15 H           2.4675   -0.7249    0.0000 H       1  UNL1        0.0694
     16 H           3.2646   -0.7249    0.0000 H       1  UNL1        0.0694
     17 H           7.7522   -0.7869    0.0000 H       1  UNL1        0.0306
     18 H           8.5991   -0.5600    0.0000 H       1  UNL1        0.0306
     19 H           8.3722    0.2869    0.0000 H       1  UNL1        0.0306
     20 H           2.3100    0.7869    0.0000 H       1  UNL1        0.0262
     21 H           1.4631    0.5600    0.0000 H       1  UNL1        0.0262
     22 H           1.6900   -0.2869    0.0000 H       1  UNL1        0.0262
@<TRIPOS>BOND
     1     1     7    1
     2     1     8    1
     3     2     7    2
     4     3     6    2
     5     4     5    1
     6     4     7    1
     7     4    11    1
     8     4    12    1
     9     5     6    1
    10     5    13    1
    11     5    14    1
    12     6     9    1
    13     8    10    1
    14     8    15    1
    15     8    16    1
    16     9    17    1
    17     9    18    1
    18     9    19    1
    19    10    20    1
    20    10    21    1
    21    10    22    1
