@<TRIPOS>MOLECULE
IMPHY003794
 41 43 0 0 0
SMALL
GASTEIGER

@<TRIPOS>ATOM
      1 O           5.5413   -2.2260    0.0000 O.3     1  UNL1       -0.3912
      2 O           6.0055    2.4699    0.0000 O.3     1  UNL1       -0.4575
      3 O           2.3784   -0.7029    0.0000 O.3     1  UNL1       -0.3914
      4 O           7.7453    2.8281    0.0000 O.2     1  UNL1       -0.2453
      5 C           4.9557   -0.5490    0.0000 C.3     1  UNL1        0.0001
      6 C           4.0547   -0.1151    0.0000 C.3     1  UNL1       -0.0044
      7 C           4.8197   -1.5337    0.0000 C.3     1  UNL1        0.0633
      8 C           3.8322    0.8598    0.0000 C.3     1  UNL1       -0.0348
      9 C           5.8566   -0.1151    0.0000 C.3     1  UNL1       -0.0345
     10 C           3.3696   -0.8354    0.0000 C.3     1  UNL1        0.0612
     11 C           3.8414   -1.7104    0.0000 C.3     1  UNL1        0.0001
     12 C           6.0792    0.8598    0.0000 C.3     1  UNL1        0.0280
     13 C           4.4557    1.6417    0.0000 C.3     1  UNL1       -0.0121
     14 C           5.4557    1.6417    0.0000 C.3     1  UNL1        0.1106
     15 C           5.8566   -0.9829    0.0000 C.3     1  UNL1       -0.0568
     16 C           2.8573    1.0824    0.0000 C.3     1  UNL1       -0.0619
     17 C           7.0089    1.2115    0.0000 C.2     1  UNL1        0.0361
     18 C           6.9635    2.2046    0.0000 C.2     1  UNL1        0.3353
     19 C           7.8445    0.6621    0.0000 C.2     1  UNL1       -0.0883
     20 H           3.2350    0.1100    0.0000 H       1  UNL1        0.0334
     21 H           4.6406   -2.1273    0.0000 H       1  UNL1        0.0599
     22 H           3.6274    1.4450    0.0000 H       1  UNL1        0.0303
     23 H           5.9946   -0.7195    0.0000 H       1  UNL1        0.0278
     24 H           6.4766   -0.1151    0.0000 H       1  UNL1        0.0278
     25 H           3.0172   -1.3455    0.0000 H       1  UNL1        0.0597
     26 H           3.2678   -1.9456    0.0000 H       1  UNL1        0.0315
     27 H           4.0151   -2.3055    0.0000 H       1  UNL1        0.0315
     28 H           6.7200    0.3014    0.0000 H       1  UNL1        0.0387
     29 H           4.5936    2.2461    0.0000 H       1  UNL1        0.0304
     30 H           3.8971    1.9107    0.0000 H       1  UNL1        0.0304
     31 H           5.0539    2.3907    0.0000 H       1  UNL1        0.0740
     32 H           5.5876   -1.5414    0.0000 H       1  UNL1        0.0236
     33 H           6.4152   -1.2519    0.0000 H       1  UNL1        0.0236
     34 H           6.1256   -0.4243    0.0000 H       1  UNL1        0.0236
     35 H           2.9952    1.6868    0.0000 H       1  UNL1        0.0233
     36 H           2.2528    1.2203    0.0000 H       1  UNL1        0.0233
     37 H           2.7193    0.4779    0.0000 H       1  UNL1        0.0233
     38 H           5.3932   -2.8281    0.0000 H       1  UNL1        0.2098
     39 H           2.0000   -1.1940    0.0000 H       1  UNL1        0.2098
     40 H           7.8085    0.0431    0.0000 H       1  UNL1        0.0540
     41 H           8.3985    0.9404    0.0000 H       1  UNL1        0.0540
@<TRIPOS>BOND
     1     7     1    1
     2     1    38    1
     3     2    14    1
     4     2    18    1
     5    10     3    1
     6     3    39    1
     7     4    18    2
     8     5     6    1
     9     5     7    1
    10     5     9    1
    11     5    15    1
    12     6     8    1
    13     6    10    1
    14     6    20    1
    15     7    11    1
    16     7    21    1
    17     8    13    1
    18     8    16    1
    19     8    22    1
    20     9    12    1
    21     9    23    1
    22     9    24    1
    23    10    11    1
    24    10    25    1
    25    11    26    1
    26    11    27    1
    27    12    14    1
    28    12    17    1
    29    12    28    1
    30    13    14    1
    31    13    29    1
    32    13    30    1
    33    14    31    1
    34    15    32    1
    35    15    33    1
    36    15    34    1
    37    16    35    1
    38    16    36    1
    39    16    37    1
    40    17    18    1
    41    17    19    2
    42    19    40    1
    43    19    41    1
