@<TRIPOS>MOLECULE
IMPHY015849
 40 42 0 0 0
SMALL
GASTEIGER

@<TRIPOS>ATOM
      1 O           6.0682   -2.4827    0.0000 O.3     1  UNL1       -0.4910
      2 O           6.9343    1.0173    0.0000 O.3     1  UNL1       -0.5030
      3 O           8.6663    2.0173    0.0000 O.3     1  UNL1       -0.4885
      4 O          10.3984    1.0173    0.0000 O.3     1  UNL1       -0.4913
      5 O           2.5381   -2.5068    0.0000 O.3     1  UNL1       -0.5066
      6 C           6.9343   -0.9827    0.0000 C.3     1  UNL1        0.0260
      7 C           6.0682   -0.4827    0.0000 C.3     1  UNL1       -0.0142
      8 C           6.9343   -1.9827    0.0000 C.3     1  UNL1        0.0968
      9 C           7.8003   -0.4827    0.0000 C.ar    1  UNL1        0.0045
     10 C           5.2022   -0.9827    0.0000 C.ar    1  UNL1       -0.0048
     11 C           5.2022   -1.9827    0.0000 C.ar    1  UNL1        0.1272
     12 C           7.8003    0.5173    0.0000 C.ar    1  UNL1        0.1658
     13 C           8.6663   -0.9827    0.0000 C.ar    1  UNL1       -0.0510
     14 C           4.3083   -0.4480    0.0000 C.ar    1  UNL1       -0.0516
     15 C           4.3083   -2.5173    0.0000 C.ar    1  UNL1        0.0218
     16 C           8.6663    1.0173    0.0000 C.ar    1  UNL1        0.2036
     17 C           9.5323   -0.4827    0.0000 C.ar    1  UNL1       -0.0158
     18 C           3.4022   -0.9619    0.0000 C.ar    1  UNL1       -0.0197
     19 C           9.5323    0.5173    0.0000 C.ar    1  UNL1        0.1652
     20 C           3.4022   -2.0035    0.0000 C.ar    1  UNL1        0.1203
     21 C           9.5323    2.5173    0.0000 C.3     1  UNL1        0.0791
     22 C          11.2644    0.5173    0.0000 C.3     1  UNL1        0.0790
     23 H           6.9343   -0.3627    0.0000 H       1  UNL1        0.0386
     24 H           6.4668   -0.0077    0.0000 H       1  UNL1        0.0321
     25 H           5.6697   -0.0077    0.0000 H       1  UNL1        0.0321
     26 H           7.1463   -2.5653    0.0000 H       1  UNL1        0.0703
     27 H           7.5449   -1.8750    0.0000 H       1  UNL1        0.0703
     28 H           8.6663   -1.6027    0.0000 H       1  UNL1        0.0623
     29 H           4.3154    0.1720    0.0000 H       1  UNL1        0.0623
     30 H           4.3154   -3.1373    0.0000 H       1  UNL1        0.0691
     31 H          10.0693   -0.7927    0.0000 H       1  UNL1        0.0655
     32 H           2.8665   -0.6498    0.0000 H       1  UNL1        0.0654
     33 H           6.9343    1.6373    0.0000 H       1  UNL1        0.2923
     34 H           2.0000   -2.1989    0.0000 H       1  UNL1        0.2921
     35 H           9.8424    1.9804    0.0000 H       1  UNL1        0.0660
     36 H          10.0693    2.8273    0.0000 H       1  UNL1        0.0660
     37 H           9.2224    3.0543    0.0000 H       1  UNL1        0.0660
     38 H          10.9544   -0.0196    0.0000 H       1  UNL1        0.0660
     39 H          11.8013    0.2073    0.0000 H       1  UNL1        0.0660
     40 H          11.5744    1.0543    0.0000 H       1  UNL1        0.0660
@<TRIPOS>BOND
     1     1     8    1
     2     1    11    1
     3     2    12    1
     4     2    33    1
     5     3    16    1
     6     3    21    1
     7     4    19    1
     8     4    22    1
     9     5    20    1
    10     5    34    1
    11     6     7    1
    12     6     8    1
    13     6     9    1
    14     6    23    1
    15     7    10    1
    16     7    24    1
    17     7    25    1
    18     8    26    1
    19     8    27    1
    20     9    12   ar
    21     9    13   ar
    22    10    11   ar
    23    10    14   ar
    24    11    15   ar
    25    12    16   ar
    26    13    17   ar
    27    13    28    1
    28    14    18   ar
    29    14    29    1
    30    15    20   ar
    31    15    30    1
    32    16    19   ar
    33    17    19   ar
    34    17    31    1
    35    18    20   ar
    36    18    32    1
    37    21    35    1
    38    21    36    1
    39    21    37    1
    40    22    38    1
    41    22    39    1
    42    22    40    1
