@<TRIPOS>MOLECULE
IMPHY008425
 53 56 0 0 0
SMALL
GASTEIGER

@<TRIPOS>ATOM
      1 O           7.8003    0.2500    0.0000 O.3     1  UNL1       -0.3385
      2 O           6.9343    1.7500    0.0000 O.3     1  UNL1       -0.3461
      3 O           6.0682   -1.7500    0.0000 O.3     1  UNL1       -0.4809
      4 O           6.0682    1.2500    0.0000 O.3     1  UNL1       -0.3842
      5 O           9.5323    1.2500    0.0000 O.3     1  UNL1       -0.3841
      6 O           9.5323    3.2500    0.0000 O.3     1  UNL1       -0.3864
      7 O           7.8003    4.2500    0.0000 O.3     1  UNL1       -0.3869
      8 O           4.3198    1.2846    0.0000 O.3     1  UNL1       -0.5062
      9 O           2.5381   -1.7742    0.0000 O.3     1  UNL1       -0.5065
     10 O           8.6663   -4.2500    0.0000 O.3     1  UNL1       -0.5033
     11 O          10.3984   -3.2500    0.0000 O.3     1  UNL1       -0.5033
     12 C           6.9343   -0.2500    0.0000 C.3     1  UNL1        0.1327
     13 C           6.9343   -1.2500    0.0000 C.3     1  UNL1        0.1541
     14 C           7.8003    1.2500    0.0000 C.3     1  UNL1        0.1881
     15 C           6.0682    0.2500    0.0000 C.3     1  UNL1        0.1170
     16 C           8.6663    1.7500    0.0000 C.3     1  UNL1        0.1341
     17 C           8.6663    2.7500    0.0000 C.3     1  UNL1        0.1137
     18 C           7.8003    3.2500    0.0000 C.3     1  UNL1        0.1069
     19 C           5.2022   -0.2500    0.0000 C.ar    1  UNL1        0.0667
     20 C           6.9343    2.7500    0.0000 C.3     1  UNL1        0.0792
     21 C           5.2022   -1.2500    0.0000 C.ar    1  UNL1        0.1342
     22 C           7.8003   -1.7500    0.0000 C.ar    1  UNL1       -0.0011
     23 C           4.3083    0.2847    0.0000 C.ar    1  UNL1        0.1295
     24 C           4.3083   -1.7847    0.0000 C.ar    1  UNL1        0.0222
     25 C           7.8003   -2.7500    0.0000 C.ar    1  UNL1       -0.0098
     26 C           8.6663   -1.2500    0.0000 C.ar    1  UNL1       -0.0513
     27 C           3.4022   -0.2292    0.0000 C.ar    1  UNL1        0.0219
     28 C           3.4022   -1.2708    0.0000 C.ar    1  UNL1        0.1238
     29 C           8.6663   -3.2500    0.0000 C.ar    1  UNL1        0.1586
     30 C           9.5323   -1.7500    0.0000 C.ar    1  UNL1       -0.0162
     31 C           9.5323   -2.7500    0.0000 C.ar    1  UNL1        0.1582
     32 H           6.9343    0.3700    0.0000 H       1  UNL1        0.0667
     33 H           6.9343   -1.8700    0.0000 H       1  UNL1        0.0812
     34 H           8.3372    0.9400    0.0000 H       1  UNL1        0.0937
     35 H           5.5313    0.5600    0.0000 H       1  UNL1        0.0673
     36 H           9.2033    2.0600    0.0000 H       1  UNL1        0.0671
     37 H           8.6663    3.3700    0.0000 H       1  UNL1        0.0647
     38 H           7.2634    3.5600    0.0000 H       1  UNL1        0.0643
     39 H           6.7222    3.3326    0.0000 H       1  UNL1        0.0587
     40 H           6.3237    2.6423    0.0000 H       1  UNL1        0.0587
     41 H           5.5313    1.5600    0.0000 H       1  UNL1        0.2104
     42 H          10.0693    1.5600    0.0000 H       1  UNL1        0.2101
     43 H           4.3154   -2.4046    0.0000 H       1  UNL1        0.0691
     44 H           9.5323    3.8700    0.0000 H       1  UNL1        0.2100
     45 H           7.2634   -3.0600    0.0000 H       1  UNL1        0.0659
     46 H           8.6663   -0.6300    0.0000 H       1  UNL1        0.0623
     47 H           7.2634    4.5600    0.0000 H       1  UNL1        0.2100
     48 H           2.8665    0.0829    0.0000 H       1  UNL1        0.0691
     49 H          10.0693   -1.4400    0.0000 H       1  UNL1        0.0655
     50 H           3.7865    1.6008    0.0000 H       1  UNL1        0.2922
     51 H           2.0000   -1.4662    0.0000 H       1  UNL1        0.2921
     52 H           9.2033   -4.5600    0.0000 H       1  UNL1        0.2923
     53 H          10.9353   -2.9400    0.0000 H       1  UNL1        0.2923
@<TRIPOS>BOND
     1     1    12    1
     2    14     1    1
     3     2    14    1
     4     2    20    1
     5     3    13    1
     6     3    21    1
     7     4    15    1
     8     4    41    1
     9    16     5    1
    10     5    42    1
    11    17     6    1
    12     6    44    1
    13    18     7    1
    14     7    47    1
    15     8    23    1
    16     8    50    1
    17     9    28    1
    18     9    51    1
    19    10    29    1
    20    10    52    1
    21    11    31    1
    22    11    53    1
    23    12    13    1
    24    12    15    1
    25    12    32    1
    26    13    22    1
    27    13    33    1
    28    14    16    1
    29    14    34    1
    30    15    19    1
    31    15    35    1
    32    16    17    1
    33    16    36    1
    34    17    18    1
    35    17    37    1
    36    18    20    1
    37    18    38    1
    38    19    21   ar
    39    19    23   ar
    40    20    39    1
    41    20    40    1
    42    21    24   ar
    43    22    25   ar
    44    22    26   ar
    45    23    27   ar
    46    24    28   ar
    47    24    43    1
    48    25    29   ar
    49    25    45    1
    50    26    30   ar
    51    26    46    1
    52    27    28   ar
    53    27    48    1
    54    29    31   ar
    55    30    31   ar
    56    30    49    1
