@<TRIPOS>MOLECULE
IMPHY012089
 17 16 0 0 0
SMALL
GASTEIGER

@<TRIPOS>ATOM
      1 O           2.5369    0.7500    0.0000 O.3     1  UNL1       -0.4806
      2 O           3.4030   -0.7500    0.0000 O.2     1  UNL1       -0.2510
      3 C           5.1350    0.2500    0.0000 C.3     1  UNL1       -0.0432
      4 C           6.0010    0.7500    0.0000 C.3     1  UNL1       -0.0554
      5 C           4.2690    0.7500    0.0000 C.3     1  UNL1        0.0448
      6 C           6.8671    0.2500    0.0000 C.3     1  UNL1       -0.0653
      7 C           3.4030    0.2500    0.0000 C.2     1  UNL1        0.3047
      8 H           4.7365   -0.2249    0.0000 H       1  UNL1        0.0270
      9 H           5.5335   -0.2249    0.0000 H       1  UNL1        0.0270
     10 H           6.3996    1.2250    0.0000 H       1  UNL1        0.0263
     11 H           5.6025    1.2250    0.0000 H       1  UNL1        0.0263
     12 H           4.6675    1.2250    0.0000 H       1  UNL1        0.0377
     13 H           3.8705    1.2250    0.0000 H       1  UNL1        0.0377
     14 H           6.5571   -0.2869    0.0000 H       1  UNL1        0.0230
     15 H           7.4040   -0.0600    0.0000 H       1  UNL1        0.0230
     16 H           7.1771    0.7869    0.0000 H       1  UNL1        0.0230
     17 H           2.0000    0.4400    0.0000 H       1  UNL1        0.2951
@<TRIPOS>BOND
     1     1     7    1
     2     1    17    1
     3     2     7    2
     4     3     4    1
     5     3     5    1
     6     3     8    1
     7     3     9    1
     8     4     6    1
     9     4    10    1
    10     4    11    1
    11     5     7    1
    12     5    12    1
    13     5    13    1
    14     6    14    1
    15     6    15    1
    16     6    16    1
