@<TRIPOS>MOLECULE
IMPHY004529
 47 49 0 0 0
SMALL
GASTEIGER

@<TRIPOS>ATOM
      1 O           2.8680    0.4638    0.0000 O.3     1  UNL1       -0.4914
      2 O           2.8680    2.5121    0.0000 O.3     1  UNL1       -0.5033
      3 O           2.9340   -2.5121    0.0000 O.3     1  UNL1       -0.5068
      4 N           7.2641    0.9879    0.0000 N.4     1  UNL1        0.2449
      5 C           6.3981    0.4879    0.0000 C.3     1  UNL1        0.0107
      6 C           7.2641    1.9879    0.0000 C.3     1  UNL1       -0.0259
      7 C           5.5320    0.9879    0.0000 C.ar    1  UNL1        0.0076
      8 C           6.3981    2.4879    0.0000 C.3     1  UNL1        0.0133
      9 C           6.3981   -0.5121    0.0000 C.3     1  UNL1        0.0200
     10 C           5.5320    1.9879    0.0000 C.ar    1  UNL1       -0.0302
     11 C           8.2641    0.9879    0.0000 C.3     1  UNL1       -0.0409
     12 C           7.7641    0.1219    0.0000 C.3     1  UNL1       -0.0409
     13 C           4.6381    0.4533    0.0000 C.ar    1  UNL1       -0.0075
     14 C           5.5320   -1.0121    0.0000 C.ar    1  UNL1       -0.0415
     15 C           4.6381    2.5226    0.0000 C.ar    1  UNL1       -0.0127
     16 C           3.7320    0.9671    0.0000 C.ar    1  UNL1        0.1617
     17 C           3.7320    2.0087    0.0000 C.ar    1  UNL1        0.1587
     18 C           4.6660   -0.5121    0.0000 C.ar    1  UNL1       -0.0549
     19 C           5.5320   -2.0121    0.0000 C.ar    1  UNL1       -0.0549
     20 C           3.8000   -1.0121    0.0000 C.ar    1  UNL1       -0.0199
     21 C           4.6660   -2.5121    0.0000 C.ar    1  UNL1       -0.0199
     22 C           3.8000   -2.0121    0.0000 C.ar    1  UNL1        0.1169
     23 C           2.0000    0.9604    0.0000 C.3     1  UNL1        0.0790
     24 H           6.9350    0.1779    0.0000 H       1  UNL1        0.0908
     25 H           7.8747    1.8803    0.0000 H       1  UNL1        0.0818
     26 H           7.4762    2.5705    0.0000 H       1  UNL1        0.0818
     27 H           6.7966    2.9629    0.0000 H       1  UNL1        0.0365
     28 H           5.9995    2.9629    0.0000 H       1  UNL1        0.0365
     29 H           6.6101   -1.0947    0.0000 H       1  UNL1        0.0372
     30 H           7.0086   -0.4044    0.0000 H       1  UNL1        0.0372
     31 H           8.2641    0.3679    0.0000 H       1  UNL1        0.0778
     32 H           8.8841    0.9879    0.0000 H       1  UNL1        0.0778
     33 H           8.2641    1.6079    0.0000 H       1  UNL1        0.0778
     34 H           7.2272   -0.1881    0.0000 H       1  UNL1        0.0778
     35 H           8.0741   -0.4150    0.0000 H       1  UNL1        0.0778
     36 H           8.3010    0.4319    0.0000 H       1  UNL1        0.0778
     37 H           4.6453   -0.1667    0.0000 H       1  UNL1        0.0660
     38 H           4.6453    3.1426    0.0000 H       1  UNL1        0.0658
     39 H           4.6660    0.1079    0.0000 H       1  UNL1        0.0621
     40 H           6.0690   -2.3221    0.0000 H       1  UNL1        0.0621
     41 H           3.2631   -0.7021    0.0000 H       1  UNL1        0.0654
     42 H           4.6660   -3.1321    0.0000 H       1  UNL1        0.0654
     43 H           2.8703    3.1321    0.0000 H       1  UNL1        0.2923
     44 H           2.3079    1.4986    0.0000 H       1  UNL1        0.0660
     45 H           1.4619    1.2684    0.0000 H       1  UNL1        0.0660
     46 H           1.6921    0.4223    0.0000 H       1  UNL1        0.0660
     47 H           2.9340   -3.1321    0.0000 H       1  UNL1        0.2921
@<TRIPOS>UNITY_ATOM_ATTR
4 1
charge 1
@<TRIPOS>BOND
     1     1    16    1
     2     1    23    1
     3     2    17    1
     4     2    43    1
     5     3    22    1
     6     3    47    1
     7     4     5    1
     8     4     6    1
     9     4    11    1
    10     4    12    1
    11     5     7    1
    12     5     9    1
    13     5    24    1
    14     6     8    1
    15     6    25    1
    16     6    26    1
    17     7    10   ar
    18     7    13   ar
    19     8    10    1
    20     8    27    1
    21     8    28    1
    22     9    14    1
    23     9    29    1
    24     9    30    1
    25    10    15   ar
    26    11    31    1
    27    11    32    1
    28    11    33    1
    29    12    34    1
    30    12    35    1
    31    12    36    1
    32    13    16   ar
    33    13    37    1
    34    14    18   ar
    35    14    19   ar
    36    15    17   ar
    37    15    38    1
    38    16    17   ar
    39    18    20   ar
    40    18    39    1
    41    19    21   ar
    42    19    40    1
    43    20    22   ar
    44    20    41    1
    45    21    22   ar
    46    21    42    1
    47    23    44    1
    48    23    45    1
    49    23    46    1
