@<TRIPOS>MOLECULE
IMPHY015030
 86 90 0 0 0
SMALL
GASTEIGER

@<TRIPOS>ATOM
      1 O           3.7320   -2.5933    0.0000 O.3     1  UNL1       -0.4610
      2 O          12.6571    0.4932    0.0000 O.3     1  UNL1       -0.4802
      3 O          11.8027   -1.0134    0.0000 O.2     1  UNL1       -0.2504
      4 O           2.8718   -1.0900    0.0000 O.2     1  UNL1       -0.2512
      5 C           8.2591   -1.0410    0.0000 C.3     1  UNL1       -0.0194
      6 C           7.3931   -0.5410    0.0000 C.3     1  UNL1       -0.0257
      7 C           6.4831   -1.0478    0.0000 C.3     1  UNL1       -0.0249
      8 C           9.1251   -0.5410    0.0000 C.3     1  UNL1       -0.0051
      9 C           6.4750   -2.0894    0.0000 C.3     1  UNL1       -0.0268
     10 C           8.2752   -2.0825    0.0000 C.3     1  UNL1       -0.0463
     11 C           7.3771   -2.6102    0.0000 C.3     1  UNL1       -0.0486
     12 C           9.1251    0.4590    0.0000 C.2     1  UNL1       -0.0629
     13 C           5.5396   -2.6391    0.0000 C.3     1  UNL1        0.0055
     14 C          10.0191    0.9937    0.0000 C.3     1  UNL1       -0.0031
     15 C           7.3931    0.4590    0.0000 C.3     1  UNL1       -0.0306
     16 C           5.5562   -0.4837    0.0000 C.3     1  UNL1       -0.0437
     17 C          10.0191   -1.0756    0.0000 C.3     1  UNL1       -0.0424
     18 C          10.9251    0.4799    0.0000 C.3     1  UNL1        0.0741
     19 C           8.9019   -1.8070    0.0000 C.3     1  UNL1       -0.0585
     20 C          10.9251   -0.5618    0.0000 C.3     1  UNL1       -0.0359
     21 C           4.6000   -2.0966    0.0000 C.3     1  UNL1        0.1084
     22 C           8.2591    0.9590    0.0000 C.2     1  UNL1       -0.0836
     23 C           6.4908   -0.0478    0.0000 C.3     1  UNL1       -0.0590
     24 C           4.6084   -1.0117    0.0000 C.3     1  UNL1       -0.0146
     25 C           9.4672   -1.4806    0.0000 C.3     1  UNL1       -0.0553
     26 C           9.9940    2.0784    0.0000 C.3     1  UNL1       -0.0403
     27 C          11.8689    1.0151    0.0000 C.3     1  UNL1       -0.0362
     28 C          10.9251    2.6353    0.0000 C.3     1  UNL1       -0.0343
     29 C           5.0430   -3.5071    0.0000 C.3     1  UNL1       -0.0562
     30 C           6.0430   -3.5032    0.0000 C.3     1  UNL1       -0.0562
     31 C          11.8689    2.1001    0.0000 C.3     1  UNL1       -0.0468
     32 C          11.7950   -0.0135    0.0000 C.2     1  UNL1        0.3115
     33 C          11.4151    3.5071    0.0000 C.3     1  UNL1       -0.0598
     34 C          10.4152    3.4955    0.0000 C.3     1  UNL1       -0.0598
     35 C           2.8680   -2.0900    0.0000 C.2     1  UNL1        0.3042
     36 C           2.0000   -2.5866    0.0000 C.3     1  UNL1        0.0332
     37 H           7.9300   -0.2310    0.0000 H       1  UNL1        0.0315
     38 H           6.4774   -2.7094    0.0000 H       1  UNL1        0.0312
     39 H           8.4932   -2.6629    0.0000 H       1  UNL1        0.0271
     40 H           8.8843   -1.9670    0.0000 H       1  UNL1        0.0271
     41 H           6.9798   -3.0862    0.0000 H       1  UNL1        0.0268
     42 H           7.7781   -3.0831    0.0000 H       1  UNL1        0.0268
     43 H          10.5512    1.3119    0.0000 H       1  UNL1        0.0357
     44 H           7.1810    1.0416    0.0000 H       1  UNL1        0.0310
     45 H           6.7825    0.3514    0.0000 H       1  UNL1        0.0310
     46 H           5.9644   -0.0171    0.0000 H       1  UNL1        0.0272
     47 H           5.1663   -0.0017    0.0000 H       1  UNL1        0.0272
     48 H           9.6145   -1.5454    0.0000 H       1  UNL1        0.0274
     49 H          10.4127   -1.5546    0.0000 H       1  UNL1        0.0274
     50 H           8.4269   -2.2055    0.0000 H       1  UNL1        0.0235
     51 H           9.3004   -2.2820    0.0000 H       1  UNL1        0.0235
     52 H           9.3768   -1.4085    0.0000 H       1  UNL1        0.0235
     53 H          11.1342   -1.1455    0.0000 H       1  UNL1        0.0276
     54 H          11.5360   -0.4557    0.0000 H       1  UNL1        0.0276
     55 H           4.5988   -2.7166    0.0000 H       1  UNL1        0.0739
     56 H           8.2591    1.5790    0.0000 H       1  UNL1        0.0572
     57 H           7.1108   -0.0526    0.0000 H       1  UNL1        0.0235
     58 H           6.4956    0.5721    0.0000 H       1  UNL1        0.0235
     59 H           5.8708   -0.0431    0.0000 H       1  UNL1        0.0235
     60 H           4.4038   -0.4264    0.0000 H       1  UNL1        0.0301
     61 H           3.9967   -1.1131    0.0000 H       1  UNL1        0.0301
     62 H           8.8846   -1.6927    0.0000 H       1  UNL1        0.0238
     63 H           9.6794   -2.0632    0.0000 H       1  UNL1        0.0238
     64 H          10.0498   -1.2685    0.0000 H       1  UNL1        0.0238
     65 H           9.7715    2.6571    0.0000 H       1  UNL1        0.0276
     66 H           9.3857    1.9582    0.0000 H       1  UNL1        0.0276
     67 H          12.0780    0.4314    0.0000 H       1  UNL1        0.0276
     68 H          12.4798    1.1212    0.0000 H       1  UNL1        0.0276
     69 H           4.5048   -3.1992    0.0000 H       1  UNL1        0.0236
     70 H           4.7350   -4.0452    0.0000 H       1  UNL1        0.0236
     71 H           5.5811   -3.8150    0.0000 H       1  UNL1        0.0236
     72 H           5.5072   -3.8153    0.0000 H       1  UNL1        0.0236
     73 H           6.3550   -4.0390    0.0000 H       1  UNL1        0.0236
     74 H           6.5787   -3.1912    0.0000 H       1  UNL1        0.0236
     75 H          12.4798    1.9940    0.0000 H       1  UNL1        0.0271
     76 H          12.0780    2.6838    0.0000 H       1  UNL1        0.0271
     77 H          11.9556    3.2033    0.0000 H       1  UNL1        0.0235
     78 H          11.7189    4.0476    0.0000 H       1  UNL1        0.0235
     79 H          10.8746    3.8108    0.0000 H       1  UNL1        0.0235
     80 H          10.9485    3.8117    0.0000 H       1  UNL1        0.0235
     81 H          10.0990    4.0288    0.0000 H       1  UNL1        0.0235
     82 H           9.8818    3.1793    0.0000 H       1  UNL1        0.0235
     83 H          13.1964    0.1874    0.0000 H       1  UNL1        0.2951
     84 H           1.6921   -2.0485    0.0000 H       1  UNL1        0.0342
     85 H           1.4619   -2.8945    0.0000 H       1  UNL1        0.0342
     86 H           2.3079   -3.1247    0.0000 H       1  UNL1        0.0342
@<TRIPOS>BOND
     1    21     1    1
     2     1    35    1
     3     2    32    1
     4     2    83    1
     5     3    32    2
     6     4    35    2
     7     5     6    1
     8     5     8    1
     9     5    10    1
    10     5    19    1
    11     6     7    1
    12     6    15    1
    13     6    37    1
    14     7     9    1
    15     7    16    1
    16     7    23    1
    17     8    12    1
    18     8    17    1
    19     8    25    1
    20     9    11    1
    21     9    13    1
    22     9    38    1
    23    10    11    1
    24    10    39    1
    25    10    40    1
    26    11    41    1
    27    11    42    1
    28    12    14    1
    29    12    22    2
    30    13    21    1
    31    13    29    1
    32    13    30    1
    33    14    18    1
    34    14    26    1
    35    14    43    1
    36    15    22    1
    37    15    44    1
    38    15    45    1
    39    16    24    1
    40    16    46    1
    41    16    47    1
    42    17    20    1
    43    17    48    1
    44    17    49    1
    45    18    20    1
    46    18    27    1
    47    18    32    1
    48    19    50    1
    49    19    51    1
    50    19    52    1
    51    20    53    1
    52    20    54    1
    53    21    24    1
    54    21    55    1
    55    22    56    1
    56    23    57    1
    57    23    58    1
    58    23    59    1
    59    24    60    1
    60    24    61    1
    61    25    62    1
    62    25    63    1
    63    25    64    1
    64    26    28    1
    65    26    65    1
    66    26    66    1
    67    27    31    1
    68    27    67    1
    69    27    68    1
    70    28    31    1
    71    28    33    1
    72    28    34    1
    73    29    69    1
    74    29    70    1
    75    29    71    1
    76    30    72    1
    77    30    73    1
    78    30    74    1
    79    31    75    1
    80    31    76    1
    81    33    77    1
    82    33    78    1
    83    33    79    1
    84    34    80    1
    85    34    81    1
    86    34    82    1
    87    35    36    1
    88    36    84    1
    89    36    85    1
    90    36    86    1
