@<TRIPOS>MOLECULE
IMPHY009561
 58 60 0 0 0
SMALL
GASTEIGER

@<TRIPOS>ATOM
      1 O           8.1301   -2.0152    0.0000 O.2     1  UNL1       -0.4542
      2 O          11.6602    0.0090    0.0000 O.3     1  UNL1       -0.4911
      3 O           4.6000   -2.0393    0.0000 O.3     1  UNL1       -0.4946
      4 O           6.3817    1.0194    0.0000 O.3     1  UNL1       -0.5055
      5 O           8.1301    0.9848    0.0000 O.2     1  UNL1       -0.2863
      6 O          11.6602   -2.0393    0.0000 O.3     1  UNL1       -0.5032
      7 O          11.6104    1.0394    0.0000 O.2     1  UNL1       -0.2921
      8 C           8.9961   -0.5152    0.0000 C.ar    1  UNL1        0.0720
      9 C           7.2641   -0.5152    0.0000 C.ar    1  UNL1        0.1064
     10 C           9.8901    0.0195    0.0000 C.ar    1  UNL1        0.0197
     11 C           8.9961   -1.5152    0.0000 C.ar    1  UNL1        0.1432
     12 C           7.2641   -1.5152    0.0000 C.ar    1  UNL1        0.1463
     13 C           8.1301   -0.0152    0.0000 C.ar    1  UNL1        0.2041
     14 C           5.4641   -0.4944    0.0000 C.ar    1  UNL1        0.0402
     15 C           6.3701    0.0195    0.0000 C.ar    1  UNL1        0.1381
     16 C           9.8785    1.0194    0.0000 C.3     1  UNL1        0.0397
     17 C          10.7961   -0.4944    0.0000 C.ar    1  UNL1        0.1657
     18 C           5.4641   -1.5360    0.0000 C.ar    1  UNL1        0.1305
     19 C           6.3701   -2.0498    0.0000 C.ar    1  UNL1        0.0236
     20 C           4.6000    0.0090    0.0000 C.3     1  UNL1       -0.0023
     21 C           9.8901   -2.0498    0.0000 C.ar    1  UNL1        0.0265
     22 C          10.7961   -1.5360    0.0000 C.ar    1  UNL1        0.1623
     23 C          10.7387    1.5294    0.0000 C.2     1  UNL1        0.1628
     24 C           3.7320   -0.4877    0.0000 C.2     1  UNL1       -0.0807
     25 C           2.8680    0.0157    0.0000 C.2     1  UNL1       -0.0793
     26 C          10.7271    2.5293    0.0000 C.2     1  UNL1       -0.0148
     27 C          12.5282   -0.4877    0.0000 C.3     1  UNL1        0.0790
     28 C           4.6038   -3.0393    0.0000 C.3     1  UNL1        0.0788
     29 C           2.0000   -0.4810    0.0000 C.3     1  UNL1       -0.0440
     30 C           2.8718    1.0156    0.0000 C.3     1  UNL1       -0.0440
     31 C          11.5873    3.0393    0.0000 C.3     1  UNL1       -0.0370
     32 C           9.8554    3.0193    0.0000 C.2     1  UNL1       -0.0925
     33 H           9.6597    1.5995    0.0000 H       1  UNL1        0.0395
     34 H           9.2692    0.9047    0.0000 H       1  UNL1        0.0395
     35 H           6.3773   -2.6698    0.0000 H       1  UNL1        0.0691
     36 H           5.0003    0.4824    0.0000 H       1  UNL1        0.0358
     37 H           4.2033    0.4855    0.0000 H       1  UNL1        0.0358
     38 H           9.8829   -2.6698    0.0000 H       1  UNL1        0.0692
     39 H           3.7296   -1.1077    0.0000 H       1  UNL1        0.0575
     40 H           5.8484    1.3356    0.0000 H       1  UNL1        0.2922
     41 H          11.6578   -2.6593    0.0000 H       1  UNL1        0.2923
     42 H          12.2203   -1.0258    0.0000 H       1  UNL1        0.0660
     43 H          13.0663   -0.7956    0.0000 H       1  UNL1        0.0660
     44 H          12.8361    0.0504    0.0000 H       1  UNL1        0.0660
     45 H           3.9838   -3.0417    0.0000 H       1  UNL1        0.0660
     46 H           4.6062   -3.6593    0.0000 H       1  UNL1        0.0660
     47 H           5.2238   -3.0369    0.0000 H       1  UNL1        0.0660
     48 H           3.4918    1.0133    0.0000 H       1  UNL1        0.0274
     49 H           2.8742    1.6356    0.0000 H       1  UNL1        0.0274
     50 H           1.6921    0.0571    0.0000 H       1  UNL1        0.0274
     51 H           1.4619   -0.7889    0.0000 H       1  UNL1        0.0274
     52 H           2.3079   -1.0191    0.0000 H       1  UNL1        0.0274
     53 H           2.2518    1.0180    0.0000 H       1  UNL1        0.0274
     54 H          11.9035    2.5060    0.0000 H       1  UNL1        0.0278
     55 H          12.1206    3.3555    0.0000 H       1  UNL1        0.0278
     56 H          11.2711    3.5726    0.0000 H       1  UNL1        0.0278
     57 H           9.8482    3.6392    0.0000 H       1  UNL1        0.0538
     58 H           9.3221    2.7031    0.0000 H       1  UNL1        0.0538
@<TRIPOS>BOND
     1     1    11   ar
     2     1    12   ar
     3     2    17    1
     4     2    27    1
     5     3    18    1
     6     3    28    1
     7     4    15    1
     8     4    40    1
     9     5    13    2
    10     6    22    1
    11     6    41    1
    12     7    23    2
    13     8    10   ar
    14     8    11   ar
    15     8    13   ar
    16     9    12   ar
    17     9    13   ar
    18     9    15   ar
    19    10    16    1
    20    10    17   ar
    21    11    21   ar
    22    12    19   ar
    23    14    15   ar
    24    14    18   ar
    25    14    20    1
    26    16    23    1
    27    16    33    1
    28    16    34    1
    29    17    22   ar
    30    18    19   ar
    31    19    35    1
    32    20    24    1
    33    20    36    1
    34    20    37    1
    35    21    22   ar
    36    21    38    1
    37    23    26    1
    38    24    25    2
    39    24    39    1
    40    25    29    1
    41    25    30    1
    42    26    31    1
    43    26    32    2
    44    27    42    1
    45    27    43    1
    46    27    44    1
    47    28    45    1
    48    28    46    1
    49    28    47    1
    50    29    50    1
    51    29    51    1
    52    29    52    1
    53    30    48    1
    54    30    49    1
    55    30    53    1
    56    31    54    1
    57    31    55    1
    58    31    56    1
    59    32    57    1
    60    32    58    1
