@<TRIPOS>MOLECULE
IMPHY003327
 87 89 0 0 0
SMALL
GASTEIGER

@<TRIPOS>ATOM
      1 O          10.3312   -2.0950    0.0000 O.3     1  UNL1       -0.3401
      2 O           8.5991   -2.0950    0.0000 O.3     1  UNL1       -0.3405
      3 O           9.4651    0.4050    0.0000 O.3     1  UNL1       -0.3405
      4 O          10.3312    1.9050    0.0000 O.3     1  UNL1       -0.3401
      5 O           6.0010   -2.5950    0.0000 O.3     1  UNL1       -0.3460
      6 O          12.0632   -1.0950    0.0000 O.3     1  UNL1       -0.3864
      7 O          10.3312   -4.0950    0.0000 O.3     1  UNL1       -0.3841
      8 O           4.2690   -2.5950    0.0000 O.3     1  UNL1       -0.3405
      9 O          12.0632    0.9050    0.0000 O.3     1  UNL1       -0.3841
     10 O           8.5991   -5.0950    0.0000 O.3     1  UNL1       -0.3864
     11 O           6.8671   -4.0950    0.0000 O.3     1  UNL1       -0.3865
     12 O           7.7331   -0.5950    0.0000 O.3     1  UNL1       -0.3924
     13 O           6.0010   -0.5950    0.0000 O.3     1  UNL1       -0.3841
     14 O           4.2690    0.4050    0.0000 O.3     1  UNL1       -0.3864
     15 O           2.5369   -0.5950    0.0000 O.3     1  UNL1       -0.3865
     16 O          10.3312    3.9050    0.0000 O.3     1  UNL1       -0.3861
     17 O           8.5991    0.9050    0.0000 O.3     1  UNL1       -0.3869
     18 O           2.5369   -3.5950    0.0000 O.3     1  UNL1       -0.3924
     19 O           7.7331    3.4050    0.0000 O.3     1  UNL1       -0.3819
     20 O           6.8671    1.9050    0.0000 O.3     1  UNL1       -0.3924
     21 O           7.7331    5.4050    0.0000 O.2     1  UNL1       -0.2982
     22 C          10.3312   -1.0950    0.0000 C.3     1  UNL1        0.1184
     23 C          11.1972   -0.5950    0.0000 C.3     1  UNL1        0.1144
     24 C           9.4651   -2.5950    0.0000 C.3     1  UNL1        0.1884
     25 C           9.4651   -0.5950    0.0000 C.3     1  UNL1        0.1134
     26 C           9.4651   -3.5950    0.0000 C.3     1  UNL1        0.1341
     27 C           7.7331   -2.5950    0.0000 C.3     1  UNL1        0.1134
     28 C          11.1972    0.4050    0.0000 C.3     1  UNL1        0.1341
     29 C           8.5991   -4.0950    0.0000 C.3     1  UNL1        0.1141
     30 C           7.7331   -3.5950    0.0000 C.3     1  UNL1        0.1119
     31 C          10.3312    0.9050    0.0000 C.3     1  UNL1        0.1884
     32 C           6.8671   -2.0950    0.0000 C.3     1  UNL1        0.0796
     33 C           8.5991   -1.0950    0.0000 C.3     1  UNL1        0.0730
     34 C           5.1350   -2.0950    0.0000 C.3     1  UNL1        0.1880
     35 C           5.1350   -1.0950    0.0000 C.3     1  UNL1        0.1341
     36 C           4.2690   -0.5950    0.0000 C.3     1  UNL1        0.1141
     37 C           3.4030   -1.0950    0.0000 C.3     1  UNL1        0.1119
     38 C           3.4030   -2.0950    0.0000 C.3     1  UNL1        0.1130
     39 C           9.4651    2.4050    0.0000 C.3     1  UNL1        0.1183
     40 C           9.4651    3.4050    0.0000 C.3     1  UNL1        0.1162
     41 C           8.5991    1.9050    0.0000 C.3     1  UNL1        0.1069
     42 C           2.5369   -2.5950    0.0000 C.3     1  UNL1        0.0730
     43 C           8.5991    3.9050    0.0000 C.3     1  UNL1        0.1382
     44 C           7.7331    2.4050    0.0000 C.3     1  UNL1        0.0727
     45 C           8.5991    4.9050    0.0000 C.2     1  UNL1        0.1512
     46 H           9.7942   -1.4050    0.0000 H       1  UNL1        0.0651
     47 H          11.7341   -0.2850    0.0000 H       1  UNL1        0.0648
     48 H          10.0021   -2.9050    0.0000 H       1  UNL1        0.0938
     49 H           8.9282   -0.2850    0.0000 H       1  UNL1        0.0647
     50 H           9.4651   -4.2150    0.0000 H       1  UNL1        0.0671
     51 H           7.7331   -1.9750    0.0000 H       1  UNL1        0.0647
     52 H          11.1972    1.0250    0.0000 H       1  UNL1        0.0671
     53 H           8.0622   -4.4050    0.0000 H       1  UNL1        0.0648
     54 H           7.1962   -3.2850    0.0000 H       1  UNL1        0.0647
     55 H           9.7942    1.2150    0.0000 H       1  UNL1        0.0938
     56 H           7.2656   -1.6200    0.0000 H       1  UNL1        0.0587
     57 H           6.4685   -1.6200    0.0000 H       1  UNL1        0.0587
     58 H           8.2006   -1.5700    0.0000 H       1  UNL1        0.0584
     59 H           8.9976   -1.5700    0.0000 H       1  UNL1        0.0584
     60 H           5.1350   -2.7150    0.0000 H       1  UNL1        0.0937
     61 H           5.1350   -0.4750    0.0000 H       1  UNL1        0.0671
     62 H           3.7320   -0.2850    0.0000 H       1  UNL1        0.0648
     63 H           2.8660   -1.4050    0.0000 H       1  UNL1        0.0647
     64 H           3.4030   -2.7150    0.0000 H       1  UNL1        0.0647
     65 H          10.0021    2.7150    0.0000 H       1  UNL1        0.0651
     66 H          12.6002   -0.7850    0.0000 H       1  UNL1        0.2100
     67 H          10.3312   -4.7150    0.0000 H       1  UNL1        0.2101
     68 H          12.0632    1.5250    0.0000 H       1  UNL1        0.2101
     69 H           8.0622   -5.4050    0.0000 H       1  UNL1        0.2100
     70 H           6.8671   -4.7150    0.0000 H       1  UNL1        0.2100
     71 H           9.4651    4.0250    0.0000 H       1  UNL1        0.0650
     72 H           8.0622    1.5950    0.0000 H       1  UNL1        0.0643
     73 H           2.3249   -2.0124    0.0000 H       1  UNL1        0.0584
     74 H           1.9264   -2.7027    0.0000 H       1  UNL1        0.0584
     75 H           8.5991    3.2850    0.0000 H       1  UNL1        0.0697
     76 H           7.7331    0.0250    0.0000 H       1  UNL1        0.2095
     77 H           6.0010    0.0250    0.0000 H       1  UNL1        0.2101
     78 H           3.7320    0.7150    0.0000 H       1  UNL1        0.2100
     79 H           8.1316    2.8800    0.0000 H       1  UNL1        0.0584
     80 H           7.3346    2.8800    0.0000 H       1  UNL1        0.0584
     81 H           2.0000   -0.9050    0.0000 H       1  UNL1        0.2100
     82 H          10.3312    4.5250    0.0000 H       1  UNL1        0.2100
     83 H           8.0622    0.5950    0.0000 H       1  UNL1        0.2100
     84 H           2.0000   -3.9050    0.0000 H       1  UNL1        0.2095
     85 H           9.1360    5.2150    0.0000 H       1  UNL1        0.1055
     86 H           7.1962    3.7150    0.0000 H       1  UNL1        0.2105
     87 H           6.3301    2.2150    0.0000 H       1  UNL1        0.2095
@<TRIPOS>BOND
     1    22     1    1
     2    24     1    1
     3     2    24    1
     4     2    27    1
     5     3    25    1
     6     3    31    1
     7    31     4    1
     8    39     4    1
     9     5    32    1
    10    34     5    1
    11    23     6    1
    12     6    66    1
    13    26     7    1
    14     7    67    1
    15     8    34    1
    16     8    38    1
    17    28     9    1
    18     9    68    1
    19    29    10    1
    20    10    69    1
    21    30    11    1
    22    11    70    1
    23    12    33    1
    24    12    76    1
    25    35    13    1
    26    13    77    1
    27    36    14    1
    28    14    78    1
    29    37    15    1
    30    15    81    1
    31    40    16    1
    32    16    82    1
    33    41    17    1
    34    17    83    1
    35    18    42    1
    36    18    84    1
    37    43    19    1
    38    19    86    1
    39    20    44    1
    40    20    87    1
    41    21    45    2
    42    22    23    1
    43    22    25    1
    44    22    46    1
    45    23    28    1
    46    23    47    1
    47    24    26    1
    48    24    48    1
    49    25    33    1
    50    25    49    1
    51    26    29    1
    52    26    50    1
    53    27    30    1
    54    27    32    1
    55    27    51    1
    56    28    31    1
    57    28    52    1
    58    29    30    1
    59    29    53    1
    60    30    54    1
    61    31    55    1
    62    32    56    1
    63    32    57    1
    64    33    58    1
    65    33    59    1
    66    34    35    1
    67    34    60    1
    68    35    36    1
    69    35    61    1
    70    36    37    1
    71    36    62    1
    72    37    38    1
    73    37    63    1
    74    38    42    1
    75    38    64    1
    76    39    40    1
    77    39    41    1
    78    39    65    1
    79    40    43    1
    80    40    71    1
    81    41    44    1
    82    41    72    1
    83    42    73    1
    84    42    74    1
    85    43    45    1
    86    43    75    1
    87    44    79    1
    88    44    80    1
    89    45    85    1
