@<TRIPOS>MOLECULE
IMPHY014514
 40 39 0 0 0
SMALL
GASTEIGER

@<TRIPOS>ATOM
      1 O           2.5369   -4.0950    0.0000 O.3     1  UNL1       -0.3950
      2 C           4.2690   -1.0950    0.0000 C.3     1  UNL1       -0.0527
      3 C           3.4030   -1.5950    0.0000 C.3     1  UNL1       -0.0510
      4 C           4.2690   -0.0950    0.0000 C.3     1  UNL1       -0.0496
      5 C           3.4030   -2.5950    0.0000 C.3     1  UNL1       -0.0297
      6 C           5.1350    0.4050    0.0000 C.3     1  UNL1       -0.0345
      7 C           2.5369   -3.0950    0.0000 C.3     1  UNL1        0.0442
      8 C           5.1350    1.4050    0.0000 C.2     1  UNL1       -0.0840
      9 C           6.0010    1.9050    0.0000 C.2     1  UNL1       -0.0657
     10 C           6.8671    1.4050    0.0000 C.2     1  UNL1       -0.0621
     11 C           7.7331    1.9050    0.0000 C.2     1  UNL1       -0.0618
     12 C           7.7331    2.9050    0.0000 C.2     1  UNL1       -0.0618
     13 C           8.5991    3.4050    0.0000 C.2     1  UNL1       -0.0621
     14 C           9.4651    2.9050    0.0000 C.2     1  UNL1       -0.0659
     15 C          10.3312    3.4050    0.0000 C.2     1  UNL1       -0.0871
     16 C          10.3312    4.4050    0.0000 C.3     1  UNL1       -0.0465
     17 H           4.4810   -1.6776    0.0000 H       1  UNL1        0.0265
     18 H           4.8796   -0.9873    0.0000 H       1  UNL1        0.0265
     19 H           3.1909   -1.0124    0.0000 H       1  UNL1        0.0266
     20 H           2.7924   -1.7027    0.0000 H       1  UNL1        0.0266
     21 H           4.0569    0.4876    0.0000 H       1  UNL1        0.0268
     22 H           3.6584   -0.2027    0.0000 H       1  UNL1        0.0268
     23 H           3.6150   -3.1776    0.0000 H       1  UNL1        0.0287
     24 H           4.0135   -2.4873    0.0000 H       1  UNL1        0.0287
     25 H           5.3471   -0.1776    0.0000 H       1  UNL1        0.0307
     26 H           5.7456    0.5127    0.0000 H       1  UNL1        0.0307
     27 H           2.3249   -2.5124    0.0000 H       1  UNL1        0.0557
     28 H           1.9264   -3.2027    0.0000 H       1  UNL1        0.0557
     29 H           4.5981    1.7150    0.0000 H       1  UNL1        0.0572
     30 H           6.0010    2.5250    0.0000 H       1  UNL1        0.0614
     31 H           2.0000   -4.4050    0.0000 H       1  UNL1        0.2094
     32 H           6.8671    0.7850    0.0000 H       1  UNL1        0.0617
     33 H           8.2700    1.5950    0.0000 H       1  UNL1        0.0618
     34 H           7.1962    3.2150    0.0000 H       1  UNL1        0.0618
     35 H           8.5991    4.0250    0.0000 H       1  UNL1        0.0617
     36 H           9.4651    2.2850    0.0000 H       1  UNL1        0.0614
     37 H          10.8681    3.0950    0.0000 H       1  UNL1        0.0569
     38 H          10.9512    4.4050    0.0000 H       1  UNL1        0.0272
     39 H          10.3312    5.0250    0.0000 H       1  UNL1        0.0272
     40 H           9.7112    4.4050    0.0000 H       1  UNL1        0.0272
@<TRIPOS>BOND
     1     1     7    1
     2     1    31    1
     3     2     3    1
     4     2     4    1
     5     2    17    1
     6     2    18    1
     7     3     5    1
     8     3    19    1
     9     3    20    1
    10     4     6    1
    11     4    21    1
    12     4    22    1
    13     5     7    1
    14     5    23    1
    15     5    24    1
    16     6     8    1
    17     6    25    1
    18     6    26    1
    19     7    27    1
    20     7    28    1
    21     8     9    2
    22     8    29    1
    23     9    10    1
    24     9    30    1
    25    10    11    2
    26    10    32    1
    27    11    12    1
    28    11    33    1
    29    12    13    2
    30    12    34    1
    31    13    14    1
    32    13    35    1
    33    14    15    2
    34    14    36    1
    35    15    16    1
    36    15    37    1
    37    16    38    1
    38    16    39    1
    39    16    40    1
