@<TRIPOS>MOLECULE
IMPHY000764
 46 48 0 0 0
SMALL
GASTEIGER

@<TRIPOS>ATOM
      1 O           5.2668   -1.6657    0.0000 O.3     1  UNL1       -0.4907
      2 O           6.9502   -2.8325    0.0000 O.3     1  UNL1       -0.4885
      3 O           8.7957   -1.9438    0.0000 O.3     1  UNL1       -0.4913
      4 O           2.5911    1.8158    0.0000 O.2     1  UNL1       -0.2840
      5 O           2.1828    0.0154    0.0000 O.3     1  UNL1       -0.5032
      6 N           5.3327    2.8868    0.0000 N.3     1  UNL1       -0.3235
      7 C           5.7666    1.9858    0.0000 C.3     1  UNL1        0.0313
      8 C           6.7666    1.9858    0.0000 C.3     1  UNL1       -0.0296
      9 C           7.3901    1.2040    0.0000 C.3     1  UNL1       -0.0252
     10 C           7.1675    0.2290    0.0000 C.ar    1  UNL1       -0.0324
     11 C           5.1431    1.2040    0.0000 C.ar    1  UNL1       -0.0191
     12 C           6.2666   -0.2048    0.0000 C.ar    1  UNL1        0.0312
     13 C           5.3656    0.2290    0.0000 C.ar    1  UNL1       -0.0091
     14 C           6.1727   -1.2422    0.0000 C.ar    1  UNL1        0.1731
     15 C           8.0371   -0.3444    0.0000 C.ar    1  UNL1       -0.0123
     16 C           4.2566    1.6236    0.0000 C.ar    1  UNL1       -0.0060
     17 C           4.7489   -0.5336    0.0000 C.ar    1  UNL1       -0.0500
     18 C           7.0288   -1.8356    0.0000 C.ar    1  UNL1        0.2041
     19 C           7.9673   -1.3837    0.0000 C.ar    1  UNL1        0.1655
     20 C           3.3746    1.1944    0.0000 C.ar    1  UNL1        0.2203
     21 C           3.7682   -0.5297    0.0000 C.ar    1  UNL1       -0.0158
     22 C           3.1577    0.2380    0.0000 C.ar    1  UNL1        0.1636
     23 C           5.1805   -2.6620    0.0000 C.3     1  UNL1        0.0790
     24 C           7.7743   -3.3990    0.0000 C.3     1  UNL1        0.0791
     25 C           9.6950   -1.5065    0.0000 C.3     1  UNL1        0.0790
     26 H           5.1505    2.0552    0.0000 H       1  UNL1        0.0508
     27 H           7.3252    2.2548    0.0000 H       1  UNL1        0.0287
     28 H           6.6286    2.5902    0.0000 H       1  UNL1        0.0287
     29 H           7.9487    0.9350    0.0000 H       1  UNL1        0.0314
     30 H           7.7766    1.6887    0.0000 H       1  UNL1        0.0314
     31 H           8.5926   -0.0689    0.0000 H       1  UNL1        0.0658
     32 H           4.2532    2.2436    0.0000 H       1  UNL1        0.0660
     33 H           5.6819    3.3990    0.0000 H       1  UNL1        0.1188
     34 H           4.7144    2.9331    0.0000 H       1  UNL1        0.1188
     35 H           5.0149   -1.0937    0.0000 H       1  UNL1        0.0625
     36 H           3.4976   -1.0876    0.0000 H       1  UNL1        0.0655
     37 H           4.5629   -2.6085    0.0000 H       1  UNL1        0.0660
     38 H           5.1271   -3.2796    0.0000 H       1  UNL1        0.0660
     39 H           5.7982   -2.7154    0.0000 H       1  UNL1        0.0660
     40 H           7.4231   -3.9100    0.0000 H       1  UNL1        0.0660
     41 H           8.2852   -3.7503    0.0000 H       1  UNL1        0.0660
     42 H           8.1255   -2.8881    0.0000 H       1  UNL1        0.0660
     43 H           9.9661   -2.0640    0.0000 H       1  UNL1        0.0660
     44 H          10.2525   -1.2353    0.0000 H       1  UNL1        0.0660
     45 H           9.4238   -0.9489    0.0000 H       1  UNL1        0.0660
     46 H           2.0000   -0.5770    0.0000 H       1  UNL1        0.2923
@<TRIPOS>BOND
     1     1    14    1
     2     1    23    1
     3     2    18    1
     4     2    24    1
     5     3    19    1
     6     3    25    1
     7     4    20    2
     8     5    22    1
     9     5    46    1
    10     7     6    1
    11     6    33    1
    12     6    34    1
    13     7     8    1
    14     7    11    1
    15     7    26    1
    16     8     9    1
    17     8    27    1
    18     8    28    1
    19     9    10    1
    20     9    29    1
    21     9    30    1
    22    10    12   ar
    23    10    15   ar
    24    11    13   ar
    25    11    16   ar
    26    12    13    1
    27    12    14   ar
    28    13    17   ar
    29    14    18   ar
    30    15    19   ar
    31    15    31    1
    32    16    20   ar
    33    16    32    1
    34    17    21   ar
    35    17    35    1
    36    18    19   ar
    37    20    22   ar
    38    21    22   ar
    39    21    36    1
    40    23    37    1
    41    23    38    1
    42    23    39    1
    43    24    40    1
    44    24    41    1
    45    24    42    1
    46    25    43    1
    47    25    44    1
    48    25    45    1
