@<TRIPOS>MOLECULE
IMPHY013855
 45 49 0 0 0
SMALL
GASTEIGER

@<TRIPOS>ATOM
      1 O           2.9350   -0.8055    0.0000 O.3     1  UNL1       -0.3835
      2 O           3.9641   -2.7140    0.0000 O.2     1  UNL1       -0.4970
      3 O           6.4461    2.4400    0.0000 O.3     1  UNL1       -0.3859
      4 O           2.0000    2.2295    0.0000 O.3     1  UNL1       -0.4526
      5 O           3.0453    3.5402    0.0000 O.3     1  UNL1       -0.4526
      6 N           6.4132   -0.2178    0.0000 N.3     1  UNL1       -0.2897
      7 C           5.5123   -0.6516    0.0000 C.3     1  UNL1        0.0533
      8 C           4.6113   -0.2178    0.0000 C.3     1  UNL1        0.0397
      9 C           6.1224   -1.4364    0.0000 C.3     1  UNL1       -0.0289
     10 C           3.9262   -0.9381    0.0000 C.3     1  UNL1        0.1205
     11 C           7.3667   -0.4990    0.0000 C.3     1  UNL1       -0.0001
     12 C           7.2268   -1.2965    0.0000 C.3     1  UNL1       -0.0382
     13 C           5.3763   -1.6364    0.0000 C.2     1  UNL1       -0.0231
     14 C           6.6358    0.7572    0.0000 C.3     1  UNL1        0.0299
     15 C           4.3888    0.7572    0.0000 C.ar    1  UNL1       -0.0300
     16 C           4.3980   -1.8130    0.0000 C.2     1  UNL1        0.1241
     17 C           6.0123    1.5390    0.0000 C.3     1  UNL1        0.0932
     18 C           5.0123    1.5390    0.0000 C.ar    1  UNL1       -0.0106
     19 C           3.3565    0.8965    0.0000 C.ar    1  UNL1       -0.0122
     20 C           4.6467    2.5144    0.0000 C.ar    1  UNL1       -0.0102
     21 C           2.9685    1.8632    0.0000 C.ar    1  UNL1        0.1665
     22 C           3.6179    2.6776    0.0000 C.ar    1  UNL1        0.1666
     23 C           4.5274   -3.5402    0.0000 C.3     1  UNL1        0.0784
     24 C           2.0473    3.2639    0.0000 C.3     1  UNL1        0.2332
     25 H           5.0960    0.1688    0.0000 H       1  UNL1        0.0400
     26 H           5.5732   -1.7242    0.0000 H       1  UNL1        0.0287
     27 H           6.3082   -2.0280    0.0000 H       1  UNL1        0.0287
     28 H           3.7202   -0.3533    0.0000 H       1  UNL1        0.0681
     29 H           7.9729   -0.6291    0.0000 H       1  UNL1        0.0427
     30 H           7.5196    0.1019    0.0000 H       1  UNL1        0.0427
     31 H           7.2430   -1.9163    0.0000 H       1  UNL1        0.0278
     32 H           7.8451   -1.3422    0.0000 H       1  UNL1        0.0278
     33 H           5.8237   -2.0656    0.0000 H       1  UNL1        0.0624
     34 H           7.1944    0.4882    0.0000 H       1  UNL1        0.0455
     35 H           7.0223    1.2419    0.0000 H       1  UNL1        0.0455
     36 H           6.6284    1.6084    0.0000 H       1  UNL1        0.0656
     37 H           2.9756    0.4073    0.0000 H       1  UNL1        0.0658
     38 H           2.5566   -1.2967    0.0000 H       1  UNL1        0.2104
     39 H           5.0388    2.9946    0.0000 H       1  UNL1        0.0659
     40 H           7.0644    2.4863    0.0000 H       1  UNL1        0.2103
     41 H           4.0152   -3.8895    0.0000 H       1  UNL1        0.0660
     42 H           4.8767   -4.0525    0.0000 H       1  UNL1        0.0660
     43 H           5.0397   -3.1910    0.0000 H       1  UNL1        0.0660
     44 H           1.9456    3.8755    0.0000 H       1  UNL1        0.1166
     45 H           1.4284    3.2270    0.0000 H       1  UNL1        0.1166
@<TRIPOS>BOND
     1     1    10    1
     2     1    38    1
     3     2    16    1
     4     2    23    1
     5     3    17    1
     6     3    40    1
     7     4    21    1
     8     4    24    1
     9     5    22    1
    10     5    24    1
    11     6     7    1
    12     6    11    1
    13     6    14    1
    14     7     8    1
    15     7     9    1
    16     7    13    1
    17     8    10    1
    18     8    15    1
    19     8    25    1
    20     9    12    1
    21     9    26    1
    22     9    27    1
    23    10    16    1
    24    10    28    1
    25    11    12    1
    26    11    29    1
    27    11    30    1
    28    12    31    1
    29    12    32    1
    30    13    16    2
    31    13    33    1
    32    14    17    1
    33    14    34    1
    34    14    35    1
    35    15    18   ar
    36    15    19   ar
    37    17    18    1
    38    17    36    1
    39    18    20   ar
    40    19    21   ar
    41    19    37    1
    42    20    22   ar
    43    20    39    1
    44    21    22   ar
    45    23    41    1
    46    23    42    1
    47    23    43    1
    48    24    44    1
    49    24    45    1
