@<TRIPOS>MOLECULE
IMPHY007989
 58 60 0 0 0
SMALL
GASTEIGER

@<TRIPOS>ATOM
      1 O           6.3981    0.8969    0.0000 O.3     1  UNL1       -0.4805
      2 O           8.1465   -2.1377    0.0000 O.3     1  UNL1       -0.5055
      3 O           9.9282    0.9210    0.0000 O.3     1  UNL1       -0.5051
      4 O           9.9243   -2.1272    0.0000 O.2     1  UNL1       -0.2918
      5 O           9.0067    2.4415    0.0000 O.2     1  UNL1       -0.2955
      6 C           5.5320   -0.6031    0.0000 C.3     1  UNL1        0.0071
      7 C           5.5320    0.3969    0.0000 C.3     1  UNL1        0.1291
      8 C           4.6381   -1.1378    0.0000 C.3     1  UNL1       -0.0395
      9 C           3.7320   -0.6239    0.0000 C.3     1  UNL1       -0.0201
     10 C           6.3981   -1.1031    0.0000 C.3     1  UNL1       -0.0139
     11 C           4.6381    0.9316    0.0000 C.2     1  UNL1       -0.0447
     12 C           2.8680   -1.1272    0.0000 C.3     1  UNL1       -0.0404
     13 C           3.7320    0.4177    0.0000 C.2     1  UNL1       -0.0809
     14 C           7.2641   -0.6031    0.0000 C.ar    1  UNL1        0.0377
     15 C           5.5320    1.3969    0.0000 C.3     1  UNL1       -0.0209
     16 C           7.2641    0.3969    0.0000 C.ar    1  UNL1        0.1421
     17 C           2.0000   -0.6306    0.0000 C.3     1  UNL1       -0.0621
     18 C           2.8718   -2.1272    0.0000 C.3     1  UNL1       -0.0621
     19 C           8.1580   -1.1378    0.0000 C.ar    1  UNL1        0.1375
     20 C           8.1580    0.9316    0.0000 C.ar    1  UNL1        0.0983
     21 C           9.0641   -0.6239    0.0000 C.ar    1  UNL1        0.1012
     22 C           9.0641    0.4177    0.0000 C.ar    1  UNL1        0.1446
     23 C           9.9282   -1.1272    0.0000 C.2     1  UNL1        0.1705
     24 C           8.1465    1.9315    0.0000 C.2     1  UNL1        0.1573
     25 C          10.7961   -0.6306    0.0000 C.3     1  UNL1        0.0130
     26 C          11.6602   -1.1339    0.0000 C.3     1  UNL1       -0.0397
     27 C          12.5282   -0.6373    0.0000 C.3     1  UNL1       -0.0623
     28 C          11.6564   -2.1339    0.0000 C.3     1  UNL1       -0.0623
     29 H           5.5386   -1.4531    0.0000 H       1  UNL1        0.0346
     30 H           4.2445   -1.6168    0.0000 H       1  UNL1        0.0275
     31 H           5.0427   -1.6076    0.0000 H       1  UNL1        0.0275
     32 H           3.7356   -1.2439    0.0000 H       1  UNL1        0.0346
     33 H           5.9995   -1.5780    0.0000 H       1  UNL1        0.0320
     34 H           6.7966   -1.5780    0.0000 H       1  UNL1        0.0320
     35 H           4.6453    1.5515    0.0000 H       1  UNL1        0.0608
     36 H           2.8656   -0.5073    0.0000 H       1  UNL1        0.0301
     37 H           3.1963    0.7298    0.0000 H       1  UNL1        0.0573
     38 H           6.1520    1.3969    0.0000 H       1  UNL1        0.0271
     39 H           5.5320    2.0169    0.0000 H       1  UNL1        0.0271
     40 H           4.9120    1.3969    0.0000 H       1  UNL1        0.0271
     41 H           2.3079   -0.0925    0.0000 H       1  UNL1        0.0233
     42 H           1.4619   -0.3227    0.0000 H       1  UNL1        0.0233
     43 H           1.6921   -1.1687    0.0000 H       1  UNL1        0.0233
     44 H           2.2518   -2.1296    0.0000 H       1  UNL1        0.0233
     45 H           2.8742   -2.7472    0.0000 H       1  UNL1        0.0233
     46 H           3.4918   -2.1249    0.0000 H       1  UNL1        0.0233
     47 H           7.6060    2.2353    0.0000 H       1  UNL1        0.1084
     48 H           7.6060   -2.4415    0.0000 H       1  UNL1        0.2922
     49 H          11.1965   -0.1572    0.0000 H       1  UNL1        0.0348
     50 H          10.3995   -0.1541    0.0000 H       1  UNL1        0.0348
     51 H          12.1960   -1.4460    0.0000 H       1  UNL1        0.0300
     52 H          10.4663    0.6131    0.0000 H       1  UNL1        0.2922
     53 H          12.8361   -1.1754    0.0000 H       1  UNL1        0.0232
     54 H          11.0364   -2.1315    0.0000 H       1  UNL1        0.0232
     55 H          11.6540   -2.7539    0.0000 H       1  UNL1        0.0232
     56 H          12.2764   -2.1363    0.0000 H       1  UNL1        0.0232
     57 H          13.0663   -0.3293    0.0000 H       1  UNL1        0.0232
     58 H          12.2203   -0.0991    0.0000 H       1  UNL1        0.0232
@<TRIPOS>BOND
     1     1     7    1
     2     1    16    1
     3     2    19    1
     4     2    48    1
     5     3    22    1
     6     3    52    1
     7     4    23    2
     8     5    24    2
     9     6     7    1
    10     6     8    1
    11     6    10    1
    12     6    29    1
    13     7    11    1
    14     7    15    1
    15     8     9    1
    16     8    30    1
    17     8    31    1
    18     9    12    1
    19     9    13    1
    20     9    32    1
    21    10    14    1
    22    10    33    1
    23    10    34    1
    24    11    13    2
    25    11    35    1
    26    12    17    1
    27    12    18    1
    28    12    36    1
    29    13    37    1
    30    14    16   ar
    31    14    19   ar
    32    15    38    1
    33    15    39    1
    34    15    40    1
    35    16    20   ar
    36    17    41    1
    37    17    42    1
    38    17    43    1
    39    18    44    1
    40    18    45    1
    41    18    46    1
    42    19    21   ar
    43    20    22   ar
    44    20    24    1
    45    21    22   ar
    46    21    23    1
    47    23    25    1
    48    24    47    1
    49    25    26    1
    50    25    49    1
    51    25    50    1
    52    26    27    1
    53    26    28    1
    54    26    51    1
    55    27    53    1
    56    27    57    1
    57    27    58    1
    58    28    54    1
    59    28    55    1
    60    28    56    1
