@<TRIPOS>MOLECULE
IMPHY014615
 89 96 0 0 0
SMALL
GASTEIGER

@<TRIPOS>ATOM
      1 O           6.1291    0.3428    0.0000 O.3     1  UNL1       -0.4537
      2 O           5.4239    4.3682    0.0000 O.3     1  UNL1       -0.4453
      3 O           6.6932    0.1842    0.0000 O.3     1  UNL1       -0.3372
      4 O           8.6955    1.4058    0.0000 O.3     1  UNL1       -0.4490
      5 O           5.1157    3.9443    0.0000 O.3     1  UNL1       -0.3582
      6 O           5.1157    2.9443    0.0000 O.3     1  UNL1       -0.3582
      7 O           6.3478    5.7509    0.0000 O.3     1  UNL1       -0.3454
      8 O           8.5520   -0.5959    0.0000 O.3     1  UNL1       -0.4501
      9 O           8.2520    1.3714    0.0000 O.3     1  UNL1       -0.3402
     10 O           5.0753    0.7344    0.0000 O.2     1  UNL1       -0.2492
     11 O           7.9788    5.0753    0.0000 O.2     1  UNL1       -0.2855
     12 O           5.9496   -2.2280    0.0000 O.3     1  UNL1       -0.4584
     13 O           8.8018    3.0084    0.0000 O.2     1  UNL1       -0.2453
     14 O           3.6387    4.5244    0.0000 O.3     1  UNL1       -0.5009
     15 O           2.3793    2.9091    0.0000 O.3     1  UNL1       -0.5032
     16 O           9.9230   -1.0144    0.0000 O.2     1  UNL1       -0.2449
     17 O           5.7294   -3.6445    0.0000 O.2     1  UNL1       -0.2449
     18 O           9.5857    2.8617    0.0000 O.2     1  UNL1       -0.2953
     19 O           8.5359   -4.3915    0.0000 O.3     1  UNL1       -0.5028
     20 O           9.3328   -4.2110    0.0000 O.3     1  UNL1       -0.5028
     21 O          11.2562   -2.7326    0.0000 O.3     1  UNL1       -0.5032
     22 O          10.3792   -4.3543    0.0000 O.3     1  UNL1       -0.5009
     23 O           6.6957   -5.5928    0.0000 O.3     1  UNL1       -0.5032
     24 O           8.5375   -5.5094    0.0000 O.3     1  UNL1       -0.5009
     25 C           6.3478    2.1378    0.0000 C.3     1  UNL1        0.1875
     26 C           5.9818    3.4443    0.0000 C.3     1  UNL1        0.2651
     27 C           6.3478    4.7509    0.0000 C.3     1  UNL1        0.3305
     28 C           6.8948   -0.2389    0.0000 C.3     1  UNL1        0.1726
     29 C           7.2717    2.5204    0.0000 C.2     1  UNL1        0.0668
     30 C           7.8554   -0.1954    0.0000 C.3     1  UNL1        0.1840
     31 C           5.4239    2.5204    0.0000 C.ar    1  UNL1        0.0251
     32 C           8.5654    0.4531    0.0000 C.3     1  UNL1        0.1940
     33 C           6.2372   -0.7007    0.0000 C.3     1  UNL1        0.1361
     34 C           5.9134    1.2799    0.0000 C.2     1  UNL1        0.3285
     35 C           7.5851    0.6262    0.0000 C.3     1  UNL1        0.2009
     36 C           7.2717    4.3682    0.0000 C.2     1  UNL1        0.2331
     37 C           5.0412    3.4443    0.0000 C.ar    1  UNL1        0.1745
     38 C           7.6543    3.4443    0.0000 C.2     1  UNL1       -0.0008
     39 C           8.1854    2.2210    0.0000 C.2     1  UNL1        0.3374
     40 C           4.8026    1.6844    0.0000 C.ar    1  UNL1       -0.0498
     41 C           5.8924   -1.4265    0.0000 C.3     1  UNL1        0.1226
     42 C           4.0107    3.5962    0.0000 C.ar    1  UNL1        0.2013
     43 C           3.7689    1.8124    0.0000 C.ar    1  UNL1       -0.0160
     44 C           3.3703    2.7747    0.0000 C.ar    1  UNL1        0.1620
     45 C           8.9611   -1.2876    0.0000 C.2     1  UNL1        0.3405
     46 C           9.2307    1.1665    0.0000 C.3     1  UNL1        0.1085
     47 C           8.9765   -2.0910    0.0000 C.ar    1  UNL1        0.0740
     48 C           6.3942   -2.8974    0.0000 C.2     1  UNL1        0.3401
     49 C           8.5942   -2.7978    0.0000 C.ar    1  UNL1        0.0458
     50 C           9.8976    1.9116    0.0000 C.2     1  UNL1        0.1558
     51 C           7.1107   -3.2611    0.0000 C.ar    1  UNL1        0.0740
     52 C           7.9135   -3.2247    0.0000 C.ar    1  UNL1        0.0458
     53 C           9.8127   -2.0548    0.0000 C.ar    1  UNL1       -0.0017
     54 C           9.0217   -3.5174    0.0000 C.ar    1  UNL1        0.1708
     55 C          10.8764    1.7067    0.0000 C.3     1  UNL1       -0.0037
     56 C           6.7140   -3.9981    0.0000 C.ar    1  UNL1       -0.0017
     57 C           8.3752   -3.9229    0.0000 C.ar    1  UNL1        0.1708
     58 C          10.2567   -2.7643    0.0000 C.ar    1  UNL1        0.1628
     59 C           9.8586   -3.5006    0.0000 C.ar    1  UNL1        0.2012
     60 C           7.1594   -4.7068    0.0000 C.ar    1  UNL1        0.1628
     61 C           7.9956   -4.6689    0.0000 C.ar    1  UNL1        0.2012
     62 H           6.0519   -0.1291    0.0000 H       1  UNL1        0.0801
     63 H           8.6849   -0.0101    0.0000 H       1  UNL1        0.0812
     64 H           9.4024    0.3053    0.0000 H       1  UNL1        0.0825
     65 H           5.4755   -0.3236    0.0000 H       1  UNL1        0.0670
     66 H           7.2019    1.1136    0.0000 H       1  UNL1        0.0950
     67 H           8.2743    3.4443    0.0000 H       1  UNL1        0.0660
     68 H           5.0465    1.1144    0.0000 H       1  UNL1        0.0623
     69 H           5.4584   -0.9837    0.0000 H       1  UNL1        0.0725
     70 H           6.5016   -1.5412    0.0000 H       1  UNL1        0.0725
     71 H           4.8057    4.4813    0.0000 H       1  UNL1        0.2130
     72 H           4.4957    2.9443    0.0000 H       1  UNL1        0.2130
     73 H           6.8847    6.0609    0.0000 H       1  UNL1        0.2144
     74 H           3.3933    1.3190    0.0000 H       1  UNL1        0.0655
     75 H           9.0002    0.5909    0.0000 H       1  UNL1        0.0640
     76 H           9.7575    0.8395    0.0000 H       1  UNL1        0.0640
     77 H           3.0250    4.6125    0.0000 H       1  UNL1        0.2924
     78 H           2.0000    2.4186    0.0000 H       1  UNL1        0.2923
     79 H          10.1013   -1.5060    0.0000 H       1  UNL1        0.0664
     80 H          10.7493    1.0999    0.0000 H       1  UNL1        0.0307
     81 H          11.4832    1.5796    0.0000 H       1  UNL1        0.0307
     82 H          11.0034    2.3136    0.0000 H       1  UNL1        0.0307
     83 H           6.0944   -4.0190    0.0000 H       1  UNL1        0.0664
     84 H           8.8546   -4.9233    0.0000 H       1  UNL1        0.2923
     85 H           9.4749   -4.8145    0.0000 H       1  UNL1        0.2923
     86 H          11.5490   -2.1861    0.0000 H       1  UNL1        0.2923
     87 H          10.9990   -4.3394    0.0000 H       1  UNL1        0.2924
     88 H           6.0762   -5.6184    0.0000 H       1  UNL1        0.2923
     89 H           8.2542   -6.0609    0.0000 H       1  UNL1        0.2924
@<TRIPOS>BOND
     1     1    28    1
     2     1    34    1
     3     2    27    1
     4     2    37    1
     5     3    33    1
     6     3    35    1
     7     4    32    1
     8     4    39    1
     9     5    26    1
    10     5    71    1
    11     6    26    1
    12     6    72    1
    13    27     7    1
    14     7    73    1
    15     8    30    1
    16     8    45    1
    17    35     9    1
    18     9    46    1
    19    10    34    2
    20    11    36    2
    21    12    41    1
    22    12    48    1
    23    13    39    2
    24    14    42    1
    25    14    77    1
    26    15    44    1
    27    15    78    1
    28    16    45    2
    29    17    48    2
    30    18    50    2
    31    19    54    1
    32    19    84    1
    33    20    57    1
    34    20    85    1
    35    21    58    1
    36    21    86    1
    37    22    59    1
    38    22    87    1
    39    23    60    1
    40    23    88    1
    41    24    61    1
    42    24    89    1
    43    25    26    1
    44    25    29    1
    45    25    31    1
    46    25    34    1
    47    26    27    1
    48    27    36    1
    49    28    30    1
    50    28    33    1
    51    28    62    1
    52    29    38    2
    53    29    39    1
    54    30    32    1
    55    30    63    1
    56    31    37   ar
    57    31    40   ar
    58    32    35    1
    59    32    64    1
    60    33    41    1
    61    33    65    1
    62    35    66    1
    63    36    38    1
    64    37    42   ar
    65    38    67    1
    66    40    43   ar
    67    40    68    1
    68    41    69    1
    69    41    70    1
    70    42    44   ar
    71    43    44   ar
    72    43    74    1
    73    45    47    1
    74    46    50    1
    75    46    75    1
    76    46    76    1
    77    47    49   ar
    78    47    53   ar
    79    48    51    1
    80    49    52    1
    81    49    54   ar
    82    50    55    1
    83    51    52   ar
    84    51    56   ar
    85    52    57   ar
    86    53    58   ar
    87    53    79    1
    88    54    59   ar
    89    55    80    1
    90    55    81    1
    91    55    82    1
    92    56    60   ar
    93    56    83    1
    94    57    61   ar
    95    58    59   ar
    96    60    61   ar
