@<TRIPOS>MOLECULE
IMPHY005890
 57 59 0 0 0
SMALL
GASTEIGER

@<TRIPOS>ATOM
      1 O           6.0682   -0.7228    0.0000 O.2     1  UNL1       -0.4537
      2 O           4.3198    2.3118    0.0000 O.3     1  UNL1       -0.5058
      3 O           6.0682    2.2772    0.0000 O.2     1  UNL1       -0.2866
      4 O           2.5381   -0.7469    0.0000 O.3     1  UNL1       -0.5062
      5 O           6.9343   -2.2228    0.0000 O.3     1  UNL1       -0.5059
      6 O          10.3984   -2.2228    0.0000 O.3     1  UNL1       -0.5066
      7 C           5.2022   -0.2228    0.0000 C.ar    1  UNL1        0.1497
      8 C           5.2022    0.7772    0.0000 C.ar    1  UNL1        0.1060
      9 C           6.9343    0.7772    0.0000 C.ar    1  UNL1        0.0467
     10 C           4.3083   -0.7574    0.0000 C.ar    1  UNL1        0.0409
     11 C           6.9343   -0.2228    0.0000 C.ar    1  UNL1        0.1462
     12 C           6.0682    1.2772    0.0000 C.ar    1  UNL1        0.2001
     13 C           7.8003    1.2772    0.0000 C.3     1  UNL1       -0.0021
     14 C           4.3198   -1.7574    0.0000 C.3     1  UNL1       -0.0023
     15 C           4.3083    1.3119    0.0000 C.ar    1  UNL1        0.1347
     16 C           3.4022   -0.2436    0.0000 C.ar    1  UNL1        0.1273
     17 C           7.8003   -0.7228    0.0000 C.ar    1  UNL1        0.0593
     18 C           3.4022    0.7981    0.0000 C.ar    1  UNL1        0.0225
     19 C           7.8003    2.2772    0.0000 C.2     1  UNL1       -0.0807
     20 C           3.4597   -2.2673    0.0000 C.2     1  UNL1       -0.0807
     21 C           7.8003   -1.7228    0.0000 C.ar    1  UNL1        0.1310
     22 C           8.6663   -0.2228    0.0000 C.ar    1  UNL1       -0.0441
     23 C           8.6663    2.7772    0.0000 C.2     1  UNL1       -0.0793
     24 C           3.4712   -3.2673    0.0000 C.2     1  UNL1       -0.0793
     25 C           8.6663   -2.2228    0.0000 C.ar    1  UNL1        0.0220
     26 C           9.5323   -0.7228    0.0000 C.ar    1  UNL1       -0.0193
     27 C           9.5323   -1.7228    0.0000 C.ar    1  UNL1        0.1204
     28 C           8.6663    3.7772    0.0000 C.3     1  UNL1       -0.0440
     29 C           9.5323    2.2772    0.0000 C.3     1  UNL1       -0.0440
     30 C           2.6110   -3.7772    0.0000 C.3     1  UNL1       -0.0440
     31 C           4.3430   -3.7572    0.0000 C.3     1  UNL1       -0.0440
     32 H           8.0124    0.6946    0.0000 H       1  UNL1        0.0358
     33 H           8.4109    1.3849    0.0000 H       1  UNL1        0.0358
     34 H           4.5386   -2.3375    0.0000 H       1  UNL1        0.0358
     35 H           4.9291   -1.6426    0.0000 H       1  UNL1        0.0358
     36 H           2.8665    1.1101    0.0000 H       1  UNL1        0.0691
     37 H           7.2634    2.5872    0.0000 H       1  UNL1        0.0575
     38 H           2.9192   -1.9636    0.0000 H       1  UNL1        0.0575
     39 H           8.6663    0.3972    0.0000 H       1  UNL1        0.0627
     40 H           8.6663   -2.8428    0.0000 H       1  UNL1        0.0691
     41 H          10.0693   -0.4128    0.0000 H       1  UNL1        0.0654
     42 H           3.7865    2.6280    0.0000 H       1  UNL1        0.2922
     43 H           2.0000   -0.4390    0.0000 H       1  UNL1        0.2921
     44 H           9.2863    3.7772    0.0000 H       1  UNL1        0.0274
     45 H           8.6663    4.3972    0.0000 H       1  UNL1        0.0274
     46 H           8.0463    3.7772    0.0000 H       1  UNL1        0.0274
     47 H           9.2224    1.7403    0.0000 H       1  UNL1        0.0274
     48 H          10.0693    1.9672    0.0000 H       1  UNL1        0.0274
     49 H           9.8424    2.8142    0.0000 H       1  UNL1        0.0274
     50 H           2.2948   -3.2439    0.0000 H       1  UNL1        0.0274
     51 H           2.0777   -4.0934    0.0000 H       1  UNL1        0.0274
     52 H           2.9272   -4.3106    0.0000 H       1  UNL1        0.0274
     53 H           4.0392   -4.2977    0.0000 H       1  UNL1        0.0274
     54 H           4.8835   -4.0610    0.0000 H       1  UNL1        0.0274
     55 H           4.6468   -3.2167    0.0000 H       1  UNL1        0.0274
     56 H           6.9343   -2.8428    0.0000 H       1  UNL1        0.2922
     57 H          10.9353   -1.9128    0.0000 H       1  UNL1        0.2921
@<TRIPOS>BOND
     1     1     7   ar
     2     1    11   ar
     3     2    15    1
     4     2    42    1
     5     3    12    2
     6     4    16    1
     7     4    43    1
     8     5    21    1
     9     5    56    1
    10     6    27    1
    11     6    57    1
    12     7     8   ar
    13     7    10   ar
    14     8    12   ar
    15     8    15   ar
    16     9    11   ar
    17     9    12   ar
    18     9    13    1
    19    10    14    1
    20    10    16   ar
    21    11    17    1
    22    13    19    1
    23    13    32    1
    24    13    33    1
    25    14    20    1
    26    14    34    1
    27    14    35    1
    28    15    18   ar
    29    16    18   ar
    30    17    21   ar
    31    17    22   ar
    32    18    36    1
    33    19    23    2
    34    19    37    1
    35    20    24    2
    36    20    38    1
    37    21    25   ar
    38    22    26   ar
    39    22    39    1
    40    23    28    1
    41    23    29    1
    42    24    30    1
    43    24    31    1
    44    25    27   ar
    45    25    40    1
    46    26    27   ar
    47    26    41    1
    48    28    44    1
    49    28    45    1
    50    28    46    1
    51    29    47    1
    52    29    48    1
    53    29    49    1
    54    30    50    1
    55    30    51    1
    56    30    52    1
    57    31    53    1
    58    31    54    1
    59    31    55    1
