@<TRIPOS>MOLECULE
IMPHY004339
 38 39 0 0 0
SMALL
GASTEIGER

@<TRIPOS>ATOM
      1 O           4.5981    0.2500    0.0000 O.3     1  UNL1       -0.4616
      2 O           2.8660    0.2500    0.0000 O.2     1  UNL1       -0.2456
      3 C           5.4641    2.7500    0.0000 C.3     1  UNL1       -0.0246
      4 C           5.4641    1.7500    0.0000 C.3     1  UNL1       -0.0145
      5 C           6.3301    3.2500    0.0000 C.ar    1  UNL1       -0.0472
      6 C           4.5981    1.2500    0.0000 C.3     1  UNL1        0.0931
      7 C           7.1962    2.7500    0.0000 C.ar    1  UNL1       -0.0586
      8 C           6.3301    4.2500    0.0000 C.ar    1  UNL1       -0.0586
      9 C           8.0622    3.2500    0.0000 C.ar    1  UNL1       -0.0615
     10 C           7.1962    4.7500    0.0000 C.ar    1  UNL1       -0.0615
     11 C           8.0622    4.2500    0.0000 C.ar    1  UNL1       -0.0617
     12 C           3.7320   -0.2500    0.0000 C.2     1  UNL1        0.3319
     13 C           2.8660   -2.7500    0.0000 C.ar    1  UNL1       -0.0248
     14 C           3.7320   -1.2500    0.0000 C.2     1  UNL1        0.0231
     15 C           2.8660   -1.7500    0.0000 C.2     1  UNL1       -0.0478
     16 C           2.0000   -3.2500    0.0000 C.ar    1  UNL1       -0.0546
     17 C           3.7320   -3.2500    0.0000 C.ar    1  UNL1       -0.0546
     18 C           2.0000   -4.2500    0.0000 C.ar    1  UNL1       -0.0612
     19 C           3.7320   -4.2500    0.0000 C.ar    1  UNL1       -0.0612
     20 C           2.8660   -4.7500    0.0000 C.ar    1  UNL1       -0.0617
     21 H           5.2520    3.3326    0.0000 H       1  UNL1        0.0314
     22 H           4.8535    2.6423    0.0000 H       1  UNL1        0.0314
     23 H           5.6762    1.1674    0.0000 H       1  UNL1        0.0301
     24 H           6.0747    1.8577    0.0000 H       1  UNL1        0.0301
     25 H           4.3860    1.8326    0.0000 H       1  UNL1        0.0697
     26 H           3.9875    1.1423    0.0000 H       1  UNL1        0.0697
     27 H           7.1962    2.1300    0.0000 H       1  UNL1        0.0620
     28 H           5.7932    4.5600    0.0000 H       1  UNL1        0.0620
     29 H           8.5991    2.9400    0.0000 H       1  UNL1        0.0618
     30 H           7.1962    5.3700    0.0000 H       1  UNL1        0.0618
     31 H           8.5991    4.5600    0.0000 H       1  UNL1        0.0618
     32 H           4.2690   -1.5600    0.0000 H       1  UNL1        0.0689
     33 H           2.3291   -1.4400    0.0000 H       1  UNL1        0.0626
     34 H           1.4631   -2.9400    0.0000 H       1  UNL1        0.0623
     35 H           4.2690   -2.9400    0.0000 H       1  UNL1        0.0623
     36 H           1.4631   -4.5600    0.0000 H       1  UNL1        0.0618
     37 H           4.2690   -4.5600    0.0000 H       1  UNL1        0.0618
     38 H           2.8660   -5.3700    0.0000 H       1  UNL1        0.0618
@<TRIPOS>BOND
     1     1     6    1
     2     1    12    1
     3     2    12    2
     4     3     4    1
     5     3     5    1
     6     3    21    1
     7     3    22    1
     8     4     6    1
     9     4    23    1
    10     4    24    1
    11     5     7   ar
    12     5     8   ar
    13     6    25    1
    14     6    26    1
    15     7     9   ar
    16     7    27    1
    17     8    10   ar
    18     8    28    1
    19     9    11   ar
    20     9    29    1
    21    10    11   ar
    22    10    30    1
    23    11    31    1
    24    12    14    1
    25    13    15    1
    26    13    16   ar
    27    13    17   ar
    28    14    15    2
    29    14    32    1
    30    15    33    1
    31    16    18   ar
    32    16    34    1
    33    17    19   ar
    34    17    35    1
    35    18    20   ar
    36    18    36    1
    37    19    20   ar
    38    19    37    1
    39    20    38    1
