@<TRIPOS>MOLECULE
IMPHY014134
 113 114 0 0 0
SMALL
GASTEIGER

@<TRIPOS>ATOM
      1 O           7.1962   -0.5000    0.0000 O.3     1  UNL1       -0.4566
      2 O           6.3301    1.0000    0.0000 O.2     1  UNL1       -0.2508
      3 O           4.5981   -4.0000    0.0000 O.3     1  UNL1       -0.4880
      4 O           2.0000   -9.5000    0.0000 O.2     1  UNL1       -0.2702
      5 N           3.7320   -9.5000    0.0000 N.am    1  UNL1       -0.3110
      6 C          10.6603    6.5000    0.0000 C.3     1  UNL1       -0.0531
      7 C          11.5263    7.0000    0.0000 C.3     1  UNL1       -0.0531
      8 C          10.6603    5.5000    0.0000 C.3     1  UNL1       -0.0531
      9 C          11.5263    8.0000    0.0000 C.3     1  UNL1       -0.0531
     10 C           9.7942    5.0000    0.0000 C.3     1  UNL1       -0.0531
     11 C          12.3923    8.5000    0.0000 C.3     1  UNL1       -0.0531
     12 C           9.7942    4.0000    0.0000 C.3     1  UNL1       -0.0531
     13 C          12.3923    9.5000    0.0000 C.3     1  UNL1       -0.0531
     14 C           8.9282    3.5000    0.0000 C.3     1  UNL1       -0.0530
     15 C          13.2583   10.0000    0.0000 C.3     1  UNL1       -0.0531
     16 C           8.9282    2.5000    0.0000 C.3     1  UNL1       -0.0526
     17 C          13.2583   11.0000    0.0000 C.3     1  UNL1       -0.0531
     18 C           8.0622    2.0000    0.0000 C.3     1  UNL1       -0.0430
     19 C          14.1244   11.5000    0.0000 C.3     1  UNL1       -0.0533
     20 C           8.0622    1.0000    0.0000 C.3     1  UNL1        0.0450
     21 C          14.1244   12.5000    0.0000 C.3     1  UNL1       -0.0559
     22 C          14.9904   13.0000    0.0000 C.3     1  UNL1       -0.0653
     23 C           7.1962    0.5000    0.0000 C.2     1  UNL1        0.3076
     24 C           6.3301   -1.0000    0.0000 C.3     1  UNL1        0.1274
     25 C           5.4641   -0.5000    0.0000 C.3     1  UNL1        0.0067
     26 C           6.3301   -2.0000    0.0000 C.2     1  UNL1       -0.0331
     27 C           5.4641    0.5000    0.0000 C.2     1  UNL1       -0.0815
     28 C           7.1962   -2.5000    0.0000 C.3     1  UNL1       -0.0402
     29 C           5.4641   -2.5000    0.0000 C.2     1  UNL1       -0.0447
     30 C           4.5981    1.0000    0.0000 C.2     1  UNL1       -0.0795
     31 C           5.4641   -3.5000    0.0000 C.3     1  UNL1        0.1082
     32 C           4.5981    2.0000    0.0000 C.3     1  UNL1       -0.0440
     33 C           3.7320    0.5000    0.0000 C.3     1  UNL1       -0.0440
     34 C           4.5981   -5.0000    0.0000 C.ar    1  UNL1        0.1210
     35 C           4.5981   -7.0000    0.0000 C.ar    1  UNL1       -0.0457
     36 C           4.5981   -8.0000    0.0000 C.3     1  UNL1       -0.0120
     37 C           3.7320   -5.5000    0.0000 C.ar    1  UNL1       -0.0197
     38 C           5.4641   -5.5000    0.0000 C.ar    1  UNL1       -0.0197
     39 C           3.7320   -6.5000    0.0000 C.ar    1  UNL1       -0.0551
     40 C           5.4641   -6.5000    0.0000 C.ar    1  UNL1       -0.0551
     41 C           3.7320   -8.5000    0.0000 C.3     1  UNL1        0.0159
     42 C           2.8660  -10.0000    0.0000 C.2     1  UNL1        0.2441
     43 C           2.8660  -11.0000    0.0000 C.ar    1  UNL1        0.0367
     44 C           2.0000  -11.5000    0.0000 C.ar    1  UNL1       -0.0496
     45 C           3.7320  -11.5000    0.0000 C.ar    1  UNL1       -0.0496
     46 C           2.0000  -12.5000    0.0000 C.ar    1  UNL1       -0.0610
     47 C           3.7320  -12.5000    0.0000 C.ar    1  UNL1       -0.0610
     48 C           2.8660  -13.0000    0.0000 C.ar    1  UNL1       -0.0617
     49 H          10.4482    7.0826    0.0000 H       1  UNL1        0.0265
     50 H          10.0497    6.3923    0.0000 H       1  UNL1        0.0265
     51 H          11.7383    6.4174    0.0000 H       1  UNL1        0.0265
     52 H          12.1369    7.1077    0.0000 H       1  UNL1        0.0265
     53 H          10.8723    4.9174    0.0000 H       1  UNL1        0.0265
     54 H          11.2708    5.6077    0.0000 H       1  UNL1        0.0265
     55 H          11.3142    8.5826    0.0000 H       1  UNL1        0.0265
     56 H          10.9157    7.8923    0.0000 H       1  UNL1        0.0265
     57 H           9.5822    5.5826    0.0000 H       1  UNL1        0.0265
     58 H           9.1836    4.8923    0.0000 H       1  UNL1        0.0265
     59 H          12.6044    7.9174    0.0000 H       1  UNL1        0.0265
     60 H          13.0029    8.6077    0.0000 H       1  UNL1        0.0265
     61 H          10.0063    3.4174    0.0000 H       1  UNL1        0.0265
     62 H          10.4048    4.1077    0.0000 H       1  UNL1        0.0265
     63 H          12.1803   10.0826    0.0000 H       1  UNL1        0.0265
     64 H          11.7817    9.3923    0.0000 H       1  UNL1        0.0265
     65 H           8.7162    4.0826    0.0000 H       1  UNL1        0.0265
     66 H           8.3176    3.3923    0.0000 H       1  UNL1        0.0265
     67 H          13.4704    9.4174    0.0000 H       1  UNL1        0.0265
     68 H          13.8689   10.1077    0.0000 H       1  UNL1        0.0265
     69 H           9.1403    1.9174    0.0000 H       1  UNL1        0.0265
     70 H           9.5388    2.6077    0.0000 H       1  UNL1        0.0265
     71 H          13.0463   11.5826    0.0000 H       1  UNL1        0.0265
     72 H          12.6477   10.8923    0.0000 H       1  UNL1        0.0265
     73 H           7.8501    2.5826    0.0000 H       1  UNL1        0.0270
     74 H           7.4516    1.8923    0.0000 H       1  UNL1        0.0270
     75 H          14.3364   10.9174    0.0000 H       1  UNL1        0.0265
     76 H          14.7349   11.6077    0.0000 H       1  UNL1        0.0265
     77 H           8.2742    0.4174    0.0000 H       1  UNL1        0.0377
     78 H           8.6728    1.1077    0.0000 H       1  UNL1        0.0377
     79 H          13.9123   13.0826    0.0000 H       1  UNL1        0.0263
     80 H          13.5138   12.3923    0.0000 H       1  UNL1        0.0263
     81 H          15.3004   12.4631    0.0000 H       1  UNL1        0.0230
     82 H          15.5273   13.3100    0.0000 H       1  UNL1        0.0230
     83 H          14.6804   13.5369    0.0000 H       1  UNL1        0.0230
     84 H           6.8671   -1.3100    0.0000 H       1  UNL1        0.0785
     85 H           4.8535   -0.3923    0.0000 H       1  UNL1        0.0346
     86 H           5.2520   -1.0826    0.0000 H       1  UNL1        0.0346
     87 H           6.0010    0.8100    0.0000 H       1  UNL1        0.0573
     88 H           6.8862   -3.0369    0.0000 H       1  UNL1        0.0276
     89 H           7.7331   -2.8100    0.0000 H       1  UNL1        0.0276
     90 H           7.5062   -1.9631    0.0000 H       1  UNL1        0.0276
     91 H           4.9272   -2.1900    0.0000 H       1  UNL1        0.0606
     92 H           5.6762   -4.0826    0.0000 H       1  UNL1        0.0742
     93 H           6.0747   -3.3923    0.0000 H       1  UNL1        0.0742
     94 H           5.2181    2.0000    0.0000 H       1  UNL1        0.0274
     95 H           4.5981    2.6200    0.0000 H       1  UNL1        0.0274
     96 H           3.9781    2.0000    0.0000 H       1  UNL1        0.0274
     97 H           3.4220    1.0369    0.0000 H       1  UNL1        0.0274
     98 H           3.1951    0.1900    0.0000 H       1  UNL1        0.0274
     99 H           4.0420   -0.0369    0.0000 H       1  UNL1        0.0274
    100 H           4.8101   -8.5826    0.0000 H       1  UNL1        0.0328
    101 H           5.2087   -7.8923    0.0000 H       1  UNL1        0.0328
    102 H           3.1951   -5.1900    0.0000 H       1  UNL1        0.0654
    103 H           6.0010   -5.1900    0.0000 H       1  UNL1        0.0654
    104 H           3.1951   -6.8100    0.0000 H       1  UNL1        0.0621
    105 H           6.0010   -6.8100    0.0000 H       1  UNL1        0.0621
    106 H           3.5200   -7.9174    0.0000 H       1  UNL1        0.0465
    107 H           3.1215   -8.6077    0.0000 H       1  UNL1        0.0465
    108 H           4.2690   -9.8100    0.0000 H       1  UNL1        0.1490
    109 H           1.4631  -11.1900    0.0000 H       1  UNL1        0.0625
    110 H           4.2690  -11.1900    0.0000 H       1  UNL1        0.0625
    111 H           1.4631  -12.8100    0.0000 H       1  UNL1        0.0618
    112 H           4.2690  -12.8100    0.0000 H       1  UNL1        0.0618
    113 H           2.8660  -13.6200    0.0000 H       1  UNL1        0.0618
@<TRIPOS>BOND
     1     1    23    1
     2     1    24    1
     3     2    23    2
     4     3    31    1
     5     3    34    1
     6     4    42    2
     7     5    41    1
     8     5    42   am
     9     5   108    1
    10     6     7    1
    11     6     8    1
    12     6    49    1
    13     6    50    1
    14     7     9    1
    15     7    51    1
    16     7    52    1
    17     8    10    1
    18     8    53    1
    19     8    54    1
    20     9    11    1
    21     9    55    1
    22     9    56    1
    23    10    12    1
    24    10    57    1
    25    10    58    1
    26    11    13    1
    27    11    59    1
    28    11    60    1
    29    12    14    1
    30    12    61    1
    31    12    62    1
    32    13    15    1
    33    13    63    1
    34    13    64    1
    35    14    16    1
    36    14    65    1
    37    14    66    1
    38    15    17    1
    39    15    67    1
    40    15    68    1
    41    16    18    1
    42    16    69    1
    43    16    70    1
    44    17    19    1
    45    17    71    1
    46    17    72    1
    47    18    20    1
    48    18    73    1
    49    18    74    1
    50    19    21    1
    51    19    75    1
    52    19    76    1
    53    20    23    1
    54    20    77    1
    55    20    78    1
    56    21    22    1
    57    21    79    1
    58    21    80    1
    59    22    81    1
    60    22    82    1
    61    22    83    1
    62    24    25    1
    63    24    26    1
    64    24    84    1
    65    25    27    1
    66    25    85    1
    67    25    86    1
    68    26    28    1
    69    26    29    2
    70    27    30    2
    71    27    87    1
    72    28    88    1
    73    28    89    1
    74    28    90    1
    75    29    31    1
    76    29    91    1
    77    30    32    1
    78    30    33    1
    79    31    92    1
    80    31    93    1
    81    32    94    1
    82    32    95    1
    83    32    96    1
    84    33    97    1
    85    33    98    1
    86    33    99    1
    87    34    37   ar
    88    34    38   ar
    89    35    36    1
    90    35    39   ar
    91    35    40   ar
    92    36    41    1
    93    36   100    1
    94    36   101    1
    95    37    39   ar
    96    37   102    1
    97    38    40   ar
    98    38   103    1
    99    39   104    1
   100    40   105    1
   101    41   106    1
   102    41   107    1
   103    42    43    1
   104    43    44   ar
   105    43    45   ar
   106    44    46   ar
   107    44   109    1
   108    45    47   ar
   109    45   110    1
   110    46    48   ar
   111    46   111    1
   112    47    48   ar
   113    47   112    1
   114    48   113    1
