@<TRIPOS>MOLECULE
IMPHY013738
 17 18 0 0 0
SMALL
GASTEIGER

@<TRIPOS>ATOM
      1 S           4.6783   -0.8042    0.0000 S.O2    1  UNL1        0.0754
      2 O           5.4883   -1.3906    0.0000 O.2     1  UNL1       -0.1499
      3 O           4.3709   -1.7558    0.0000 O.2     1  UNL1       -0.1499
      4 O           4.9889    1.7558    0.0000 O.2     1  UNL1       -0.2685
      5 N           5.2619    0.0005    0.0000 N.am    1  UNL1       -0.1814
      6 C           3.7320   -0.4995    0.0000 C.ar    1  UNL1        0.1207
      7 C           3.7320    0.5005    0.0000 C.ar    1  UNL1        0.0648
      8 C           4.6783    0.8053    0.0000 C.2     1  UNL1        0.2649
      9 C           2.8660   -0.9995    0.0000 C.ar    1  UNL1       -0.0343
     10 C           2.8660    1.0005    0.0000 C.ar    1  UNL1       -0.0477
     11 C           2.0000   -0.4995    0.0000 C.ar    1  UNL1       -0.0599
     12 C           2.0000    0.5005    0.0000 C.ar    1  UNL1       -0.0609
     13 H           5.8819    0.0005    0.0000 H       1  UNL1        0.1769
     14 H           2.8660   -1.6195    0.0000 H       1  UNL1        0.0637
     15 H           2.8660    1.6205    0.0000 H       1  UNL1        0.0626
     16 H           1.4631   -0.8095    0.0000 H       1  UNL1        0.0618
     17 H           1.4631    0.8105    0.0000 H       1  UNL1        0.0618
@<TRIPOS>BOND
     1     1     2    2
     2     1     3    2
     3     1     5    1
     4     1     6    1
     5     4     8    2
     6     5     8   am
     7     5    13    1
     8     6     7   ar
     9     6     9   ar
    10     7     8    1
    11     7    10   ar
    12     9    11   ar
    13     9    14    1
    14    10    12   ar
    15    10    15    1
    16    11    12   ar
    17    11    16    1
    18    12    17    1
