@<TRIPOS>MOLECULE
IMPHY011918
 120 126 0 0 0
SMALL
GASTEIGER

@<TRIPOS>ATOM
      1 O           6.8671   -2.3970    0.0000 O.3     1  UNL1       -0.3449
      2 O           5.1720    1.7932    0.0000 O.2     1  UNL1       -0.2923
      3 O           5.1350   -2.3970    0.0000 O.3     1  UNL1       -0.3315
      4 O           5.8747    8.1749    0.0000 O.3     1  UNL1       -0.4802
      5 O           4.3882    7.2858    0.0000 O.2     1  UNL1       -0.2504
      6 O           6.8671   -4.3970    0.0000 O.3     1  UNL1       -0.3377
      7 O           5.1350   -5.3970    0.0000 O.3     1  UNL1       -0.3864
      8 O           3.4030   -4.3970    0.0000 O.3     1  UNL1       -0.3860
      9 O           6.0010   -5.8970    0.0000 O.3     1  UNL1       -0.3315
     10 O           2.5369   -2.8970    0.0000 O.3     1  UNL1       -0.4788
     11 O           3.4030   -1.3970    0.0000 O.2     1  UNL1       -0.2480
     12 O           8.5991   -5.3970    0.0000 O.3     1  UNL1       -0.3841
     13 O           8.5991   -7.3970    0.0000 O.3     1  UNL1       -0.3864
     14 O           6.8671   -8.3970    0.0000 O.3     1  UNL1       -0.3860
     15 O           5.1350   -8.3970    0.0000 O.3     1  UNL1       -0.4788
     16 O           4.2690   -6.8970    0.0000 O.2     1  UNL1       -0.2480
     17 C           7.7681    2.3032    0.0000 C.3     1  UNL1       -0.0127
     18 C           6.8920    0.7583    0.0000 C.3     1  UNL1       -0.0182
     19 C           6.9040    1.7999    0.0000 C.3     1  UNL1        0.0333
     20 C           7.7643    3.3032    0.0000 C.3     1  UNL1       -0.0043
     21 C           7.7920    0.2340    0.0000 C.3     1  UNL1       -0.0274
     22 C           8.6801    1.7999    0.0000 C.3     1  UNL1       -0.0459
     23 C           7.8046   -0.8509    0.0000 C.3     1  UNL1       -0.0052
     24 C           8.6921    0.7583    0.0000 C.3     1  UNL1       -0.0486
     25 C           6.8963    3.7999    0.0000 C.2     1  UNL1       -0.0562
     26 C           6.8762    4.8413    0.0000 C.3     1  UNL1       -0.0126
     27 C           7.7722    5.3725    0.0000 C.3     1  UNL1       -0.0254
     28 C           8.6723    3.8136    0.0000 C.3     1  UNL1       -0.0429
     29 C           5.9421    0.2340    0.0000 C.3     1  UNL1       -0.0443
     30 C           8.6763    4.8552    0.0000 C.3     1  UNL1       -0.0463
     31 C           6.8671   -1.3970    0.0000 C.3     1  UNL1        0.0672
     32 C           6.0361    2.2966    0.0000 C.2     1  UNL1        0.1602
     33 C           8.7522    2.4807    0.0000 C.3     1  UNL1       -0.0581
     34 C           5.9295   -0.8509    0.0000 C.3     1  UNL1       -0.0255
     35 C           6.0279    1.2617    0.0000 C.3     1  UNL1       -0.0586
     36 C           8.7497    3.1334    0.0000 C.3     1  UNL1       -0.0553
     37 C           6.0322    3.2965    0.0000 C.2     1  UNL1       -0.0188
     38 C           5.9223    5.3583    0.0000 C.3     1  UNL1       -0.0304
     39 C           7.7764    6.4575    0.0000 C.3     1  UNL1       -0.0461
     40 C           5.9014    6.4431    0.0000 C.3     1  UNL1        0.0654
     41 C           8.8046   -0.8432    0.0000 C.3     1  UNL1       -0.0572
     42 C           8.3113   -1.7130    0.0000 C.3     1  UNL1       -0.0572
     43 C           6.8347    6.9964    0.0000 C.3     1  UNL1       -0.0370
     44 C           8.6324    5.8825    0.0000 C.3     1  UNL1       -0.0590
     45 C           4.9015    6.4276    0.0000 C.3     1  UNL1       -0.0494
     46 C           5.3881    7.3013    0.0000 C.2     1  UNL1        0.3107
     47 C           6.0010   -2.8970    0.0000 C.3     1  UNL1        0.1892
     48 C           6.0010   -3.8970    0.0000 C.3     1  UNL1        0.1407
     49 C           5.1350   -4.3970    0.0000 C.3     1  UNL1        0.1149
     50 C           4.2690   -2.8970    0.0000 C.3     1  UNL1        0.1859
     51 C           4.2690   -3.8970    0.0000 C.3     1  UNL1        0.1202
     52 C           6.8671   -5.3970    0.0000 C.3     1  UNL1        0.1891
     53 C           3.4030   -2.3970    0.0000 C.2     1  UNL1        0.3367
     54 C           7.7331   -5.8970    0.0000 C.3     1  UNL1        0.1342
     55 C           7.7331   -6.8970    0.0000 C.3     1  UNL1        0.1145
     56 C           6.0010   -6.8970    0.0000 C.3     1  UNL1        0.1859
     57 C           6.8671   -7.3970    0.0000 C.3     1  UNL1        0.1201
     58 C           5.1350   -7.3970    0.0000 C.2     1  UNL1        0.3367
     59 H           7.6385    1.3721    0.0000 H       1  UNL1        0.0392
     60 H           8.5314   -0.1853    0.0000 H       1  UNL1        0.0312
     61 H           9.2921    1.7009    0.0000 H       1  UNL1        0.0271
     62 H           8.8824    2.3860    0.0000 H       1  UNL1        0.0271
     63 H           8.9079    0.1771    0.0000 H       1  UNL1        0.0268
     64 H           9.3017    0.8715    0.0000 H       1  UNL1        0.0268
     65 H           6.1502    4.3994    0.0000 H       1  UNL1        0.0351
     66 H           8.8791    3.2291    0.0000 H       1  UNL1        0.0274
     67 H           9.2836    3.9173    0.0000 H       1  UNL1        0.0274
     68 H           5.7398    0.8201    0.0000 H       1  UNL1        0.0272
     69 H           5.3300    0.1350    0.0000 H       1  UNL1        0.0272
     70 H           9.2868    4.7467    0.0000 H       1  UNL1        0.0271
     71 H           8.8876    5.4381    0.0000 H       1  UNL1        0.0271
     72 H           7.4046   -1.7060    0.0000 H       1  UNL1        0.0602
     73 H           8.8623    1.8705    0.0000 H       1  UNL1        0.0236
     74 H           9.3624    2.5907    0.0000 H       1  UNL1        0.0236
     75 H           8.6422    3.0908    0.0000 H       1  UNL1        0.0236
     76 H           5.3199   -0.7377    0.0000 H       1  UNL1        0.0290
     77 H           5.7137   -1.4321    0.0000 H       1  UNL1        0.0290
     78 H           6.3400    1.7974    0.0000 H       1  UNL1        0.0235
     79 H           5.4922    1.5737    0.0000 H       1  UNL1        0.0235
     80 H           5.7158    0.7259    0.0000 H       1  UNL1        0.0235
     81 H           8.6444    2.5224    0.0000 H       1  UNL1        0.0238
     82 H           9.3607    3.0281    0.0000 H       1  UNL1        0.0238
     83 H           8.8550    3.7444    0.0000 H       1  UNL1        0.0238
     84 H           5.4941    3.6045    0.0000 H       1  UNL1        0.0652
     85 H           5.3095    5.4526    0.0000 H       1  UNL1        0.0282
     86 H           5.7246    4.7706    0.0000 H       1  UNL1        0.0282
     87 H           8.3869    6.3491    0.0000 H       1  UNL1        0.0271
     88 H           7.9877    7.0404    0.0000 H       1  UNL1        0.0271
     89 H           8.8094   -1.4632    0.0000 H       1  UNL1        0.0236
     90 H           9.4246   -0.8384    0.0000 H       1  UNL1        0.0236
     91 H           8.7998   -0.2232    0.0000 H       1  UNL1        0.0236
     92 H           7.7767   -2.0272    0.0000 H       1  UNL1        0.0236
     93 H           8.6254   -2.2476    0.0000 H       1  UNL1        0.0236
     94 H           8.8458   -1.3989    0.0000 H       1  UNL1        0.0236
     95 H           7.2302    7.4739    0.0000 H       1  UNL1        0.0276
     96 H           6.4319    7.4677    0.0000 H       1  UNL1        0.0276
     97 H           8.9486    5.3492    0.0000 H       1  UNL1        0.0235
     98 H           9.1657    6.1987    0.0000 H       1  UNL1        0.0235
     99 H           8.3162    6.4158    0.0000 H       1  UNL1        0.0235
    100 H           4.8920    7.0476    0.0000 H       1  UNL1        0.0240
    101 H           4.2816    6.4181    0.0000 H       1  UNL1        0.0240
    102 H           4.9111    5.8077    0.0000 H       1  UNL1        0.0240
    103 H           6.0010   -2.2770    0.0000 H       1  UNL1        0.0938
    104 H           6.5380   -3.5870    0.0000 H       1  UNL1        0.0675
    105 H           5.5565    8.7070    0.0000 H       1  UNL1        0.2951
    106 H           5.6720   -4.7070    0.0000 H       1  UNL1        0.0648
    107 H           4.2690   -2.2770    0.0000 H       1  UNL1        0.0741
    108 H           3.7320   -3.5870    0.0000 H       1  UNL1        0.0652
    109 H           7.4040   -5.0870    0.0000 H       1  UNL1        0.0938
    110 H           4.5981   -5.7070    0.0000 H       1  UNL1        0.2100
    111 H           3.4030   -5.0170    0.0000 H       1  UNL1        0.2100
    112 H           8.2700   -6.2070    0.0000 H       1  UNL1        0.0671
    113 H           7.7331   -7.5170    0.0000 H       1  UNL1        0.0648
    114 H           5.4641   -6.5870    0.0000 H       1  UNL1        0.0741
    115 H           2.0000   -2.5870    0.0000 H       1  UNL1        0.2951
    116 H           6.3301   -7.7070    0.0000 H       1  UNL1        0.0652
    117 H           8.5991   -4.7770    0.0000 H       1  UNL1        0.2101
    118 H           9.1360   -7.0870    0.0000 H       1  UNL1        0.2100
    119 H           7.4040   -8.7070    0.0000 H       1  UNL1        0.2100
    120 H           5.6720   -8.7070    0.0000 H       1  UNL1        0.2951
@<TRIPOS>BOND
     1    31     1    1
     2    47     1    1
     3     2    32    2
     4     3    47    1
     5     3    50    1
     6     4    46    1
     7     4   105    1
     8     5    46    2
     9    48     6    1
    10    52     6    1
    11    49     7    1
    12     7   110    1
    13    51     8    1
    14     8   111    1
    15     9    52    1
    16     9    56    1
    17    10    53    1
    18    10   115    1
    19    11    53    2
    20    54    12    1
    21    12   117    1
    22    55    13    1
    23    13   118    1
    24    57    14    1
    25    14   119    1
    26    15    58    1
    27    15   120    1
    28    16    58    2
    29    17    19    1
    30    17    20    1
    31    17    22    1
    32    17    33    1
    33    18    19    1
    34    18    21    1
    35    18    29    1
    36    18    35    1
    37    19    32    1
    38    19    59    1
    39    20    25    1
    40    20    28    1
    41    20    36    1
    42    21    23    1
    43    21    24    1
    44    21    60    1
    45    22    24    1
    46    22    61    1
    47    22    62    1
    48    23    31    1
    49    23    41    1
    50    23    42    1
    51    24    63    1
    52    24    64    1
    53    25    26    1
    54    25    37    2
    55    26    27    1
    56    26    38    1
    57    26    65    1
    58    27    30    1
    59    27    39    1
    60    27    44    1
    61    28    30    1
    62    28    66    1
    63    28    67    1
    64    29    34    1
    65    29    68    1
    66    29    69    1
    67    30    70    1
    68    30    71    1
    69    31    34    1
    70    31    72    1
    71    32    37    1
    72    33    73    1
    73    33    74    1
    74    33    75    1
    75    34    76    1
    76    34    77    1
    77    35    78    1
    78    35    79    1
    79    35    80    1
    80    36    81    1
    81    36    82    1
    82    36    83    1
    83    37    84    1
    84    38    40    1
    85    38    85    1
    86    38    86    1
    87    39    43    1
    88    39    87    1
    89    39    88    1
    90    40    43    1
    91    40    45    1
    92    40    46    1
    93    41    89    1
    94    41    90    1
    95    41    91    1
    96    42    92    1
    97    42    93    1
    98    42    94    1
    99    43    95    1
   100    43    96    1
   101    44    97    1
   102    44    98    1
   103    44    99    1
   104    45   100    1
   105    45   101    1
   106    45   102    1
   107    47    48    1
   108    47   103    1
   109    48    49    1
   110    48   104    1
   111    49    51    1
   112    49   106    1
   113    50    51    1
   114    50    53    1
   115    50   107    1
   116    51   108    1
   117    52    54    1
   118    52   109    1
   119    54    55    1
   120    54   112    1
   121    55    57    1
   122    55   113    1
   123    56    57    1
   124    56    58    1
   125    56   114    1
   126    57   116    1
