@<TRIPOS>MOLECULE
IMPHY013854
 28 30 0 0 0
SMALL
GASTEIGER

@<TRIPOS>ATOM
      1 O           7.0864   -1.9840    0.0000 O.3     1  UNL1       -0.4795
      2 OXT         8.3780   -0.8301    0.0000 O.2     1  UNL1       -0.2492
      3 N           7.0547    0.7022    0.0000 N.3     1  UNL1       -0.2984
      4 N           4.5274    1.8264    0.0000 N.ar    1  UNL1       -0.3567
      5 C           5.0274    0.2876    0.0000 C.ar    1  UNL1       -0.0159
      6 C           5.7123   -0.4972    0.0000 C.3     1  UNL1        0.0005
      7 CA          6.7328   -0.2885    0.0000 C.3     1  UNL1        0.1101
      8 C           5.3364    1.2386    0.0000 C.ar    1  UNL1        0.0343
      9 C           6.3518    1.4709    0.0000 C.3     1  UNL1        0.0374
     10 C           4.0274    0.2876    0.0000 C.ar    1  UNL1        0.0032
     11 C           3.7183    1.2386    0.0000 C.ar    1  UNL1        0.0470
     12 C           3.3424   -0.4972    0.0000 C.ar    1  UNL1       -0.0523
     13 C           7.3991   -1.0342    0.0000 C.2     1  UNL1        0.3223
     14 C           2.7029    1.4709    0.0000 C.ar    1  UNL1       -0.0378
     15 C           2.3219   -0.2885    0.0000 C.ar    1  UNL1       -0.0611
     16 C           2.0000    0.7022    0.0000 C.ar    1  UNL1       -0.0598
     17 H           5.1824   -0.8189    0.0000 H       1  UNL1        0.0334
     18 H           5.9387   -1.0744    0.0000 H       1  UNL1        0.0334
     19 HA          7.3395   -0.1607    0.0000 H       1  UNL1        0.0579
     20 H           6.8742    1.8048    0.0000 H       1  UNL1        0.0488
     21 H           6.1122    2.0427    0.0000 H       1  UNL1        0.0488
     22 H           7.6607    0.8334    0.0000 H       1  UNL1        0.1231
     23 H           4.5274    2.4464    0.0000 H       1  UNL1        0.1656
     24 H           3.5408   -1.0846    0.0000 H       1  UNL1        0.0624
     25 H           2.5182    2.0627    0.0000 H       1  UNL1        0.0638
     26 H           1.9088   -0.7508    0.0000 H       1  UNL1        0.0618
     27 H           1.3940    0.8334    0.0000 H       1  UNL1        0.0618
     28 H           7.4995   -2.4464    0.0000 H       1  UNL1        0.2951
@<TRIPOS>BOND
     1     1    13    1
     2     1    28    1
     3     2    13    2
     4     3     7    1
     5     3     9    1
     6     3    22    1
     7     4     8   ar
     8     4    11   ar
     9     4    23    1
    10     5     6    1
    11     5     8   ar
    12     5    10   ar
    13     6     7    1
    14     6    17    1
    15     6    18    1
    16     7    13    1
    17     7    19    1
    18     8     9    1
    19     9    20    1
    20     9    21    1
    21    10    11   ar
    22    10    12   ar
    23    11    14   ar
    24    12    15   ar
    25    12    24    1
    26    14    16   ar
    27    14    25    1
    28    15    16   ar
    29    15    26    1
    30    16    27    1
