@<TRIPOS>MOLECULE
IMPHY007789
 60 61 0 0 0
SMALL
GASTEIGER

@<TRIPOS>ATOM
      1 O           4.6660    2.0000    0.0000 O.2     1  UNL1       -0.2872
      2 N           4.6660   -1.0000    0.0000 N.ar    1  UNL1       -0.3466
      3 C          10.7282   -0.5000    0.0000 C.3     1  UNL1       -0.0531
      4 C           9.8622   -1.0000    0.0000 C.3     1  UNL1       -0.0531
      5 C          11.5942   -1.0000    0.0000 C.3     1  UNL1       -0.0531
      6 C           8.9962   -0.5000    0.0000 C.3     1  UNL1       -0.0530
      7 C          12.4603   -0.5000    0.0000 C.3     1  UNL1       -0.0531
      8 C           8.1301   -1.0000    0.0000 C.3     1  UNL1       -0.0527
      9 C          13.3263   -1.0000    0.0000 C.3     1  UNL1       -0.0531
     10 C           7.2641   -0.5000    0.0000 C.3     1  UNL1       -0.0477
     11 C          14.1923   -0.5000    0.0000 C.3     1  UNL1       -0.0531
     12 C           6.3981   -1.0000    0.0000 C.3     1  UNL1       -0.0122
     13 C          15.0583   -1.0000    0.0000 C.3     1  UNL1       -0.0533
     14 C           5.5321   -0.5000    0.0000 C.ar    1  UNL1        0.0225
     15 C          15.9244   -0.5000    0.0000 C.3     1  UNL1       -0.0559
     16 C           3.8000   -0.5000    0.0000 C.ar    1  UNL1        0.0527
     17 C           5.5321    0.5000    0.0000 C.ar    1  UNL1        0.0051
     18 C           3.8000    0.5000    0.0000 C.ar    1  UNL1        0.0452
     19 C           4.6660    1.0000    0.0000 C.ar    1  UNL1        0.1897
     20 C           4.6660   -2.0000    0.0000 C.3     1  UNL1        0.0121
     21 C          16.7904   -1.0000    0.0000 C.3     1  UNL1       -0.0653
     22 C           2.9061   -1.0347    0.0000 C.ar    1  UNL1       -0.0375
     23 C           2.9061    1.0347    0.0000 C.ar    1  UNL1       -0.0490
     24 C           2.0000   -0.5208    0.0000 C.ar    1  UNL1       -0.0598
     25 C           2.0000    0.5208    0.0000 C.ar    1  UNL1       -0.0610
     26 H          11.1267   -0.0251    0.0000 H       1  UNL1        0.0265
     27 H          10.3297   -0.0251    0.0000 H       1  UNL1        0.0265
     28 H           9.4637   -1.4750    0.0000 H       1  UNL1        0.0265
     29 H          10.2607   -1.4750    0.0000 H       1  UNL1        0.0265
     30 H          11.1957   -1.4750    0.0000 H       1  UNL1        0.0265
     31 H          11.9928   -1.4750    0.0000 H       1  UNL1        0.0265
     32 H           9.3947   -0.0251    0.0000 H       1  UNL1        0.0265
     33 H           8.5976   -0.0251    0.0000 H       1  UNL1        0.0265
     34 H          12.8588   -0.0251    0.0000 H       1  UNL1        0.0265
     35 H          12.0617   -0.0251    0.0000 H       1  UNL1        0.0265
     36 H           7.7316   -1.4750    0.0000 H       1  UNL1        0.0265
     37 H           8.5287   -1.4750    0.0000 H       1  UNL1        0.0265
     38 H          12.9278   -1.4750    0.0000 H       1  UNL1        0.0265
     39 H          13.7248   -1.4750    0.0000 H       1  UNL1        0.0265
     40 H           7.6626   -0.0251    0.0000 H       1  UNL1        0.0269
     41 H           6.8656   -0.0251    0.0000 H       1  UNL1        0.0269
     42 H          14.5908   -0.0251    0.0000 H       1  UNL1        0.0265
     43 H          13.7938   -0.0251    0.0000 H       1  UNL1        0.0265
     44 H           5.9996   -1.4750    0.0000 H       1  UNL1        0.0328
     45 H           6.7966   -1.4750    0.0000 H       1  UNL1        0.0328
     46 H          14.6598   -1.4750    0.0000 H       1  UNL1        0.0265
     47 H          15.4569   -1.4750    0.0000 H       1  UNL1        0.0265
     48 H          16.3229   -0.0251    0.0000 H       1  UNL1        0.0263
     49 H          15.5258   -0.0251    0.0000 H       1  UNL1        0.0263
     50 H           6.0690    0.8100    0.0000 H       1  UNL1        0.0673
     51 H           4.0460   -2.0000    0.0000 H       1  UNL1        0.0456
     52 H           4.6660   -2.6200    0.0000 H       1  UNL1        0.0456
     53 H           5.2860   -2.0000    0.0000 H       1  UNL1        0.0456
     54 H          16.4804   -1.5369    0.0000 H       1  UNL1        0.0230
     55 H          17.3273   -1.3100    0.0000 H       1  UNL1        0.0230
     56 H          17.1004   -0.4631    0.0000 H       1  UNL1        0.0230
     57 H           2.9132   -1.6546    0.0000 H       1  UNL1        0.0638
     58 H           2.9132    1.6546    0.0000 H       1  UNL1        0.0625
     59 H           1.4643   -0.8329    0.0000 H       1  UNL1        0.0618
     60 H           1.4643    0.8329    0.0000 H       1  UNL1        0.0618
@<TRIPOS>BOND
     1     1    19    2
     2     2    14   ar
     3     2    16   ar
     4     2    20    1
     5     3     4    1
     6     3     5    1
     7     3    26    1
     8     3    27    1
     9     4     6    1
    10     4    28    1
    11     4    29    1
    12     5     7    1
    13     5    30    1
    14     5    31    1
    15     6     8    1
    16     6    32    1
    17     6    33    1
    18     7     9    1
    19     7    34    1
    20     7    35    1
    21     8    10    1
    22     8    36    1
    23     8    37    1
    24     9    11    1
    25     9    38    1
    26     9    39    1
    27    10    12    1
    28    10    40    1
    29    10    41    1
    30    11    13    1
    31    11    42    1
    32    11    43    1
    33    12    14    1
    34    12    44    1
    35    12    45    1
    36    13    15    1
    37    13    46    1
    38    13    47    1
    39    14    17   ar
    40    15    21    1
    41    15    48    1
    42    15    49    1
    43    16    18   ar
    44    16    22   ar
    45    17    19   ar
    46    17    50    1
    47    18    19   ar
    48    18    23   ar
    49    20    51    1
    50    20    52    1
    51    20    53    1
    52    21    54    1
    53    21    55    1
    54    21    56    1
    55    22    24   ar
    56    22    57    1
    57    23    25   ar
    58    23    58    1
    59    24    25   ar
    60    24    59    1
    61    25    60    1
