@<TRIPOS>MOLECULE
IMPHY006316
 30 31 0 0 0
SMALL
GASTEIGER

@<TRIPOS>ATOM
      1 N           6.2781    1.7809    0.0000 N.3     1  UNL1       -0.3080
      2 N           4.6783   -1.9358    0.0000 N.ar    1  UNL1       -0.3604
      3 C           4.9889    0.6241    0.0000 C.3     1  UNL1       -0.0129
      4 C           4.6783   -0.3264    0.0000 C.ar    1  UNL1       -0.0212
      5 C           5.9674    0.8304    0.0000 C.3     1  UNL1        0.0024
      6 C           3.7320   -0.6311    0.0000 C.ar    1  UNL1        0.0029
      7 C           3.7320   -1.6311    0.0000 C.ar    1  UNL1        0.0467
      8 C           5.2619   -1.1311    0.0000 C.ar    1  UNL1        0.0059
      9 C           2.8660   -0.1311    0.0000 C.ar    1  UNL1       -0.0523
     10 C           2.8660   -2.1311    0.0000 C.ar    1  UNL1       -0.0378
     11 C           7.2566    1.9871    0.0000 C.3     1  UNL1       -0.0130
     12 C           5.6103    2.5252    0.0000 C.3     1  UNL1       -0.0130
     13 C           2.0000   -0.6311    0.0000 C.ar    1  UNL1       -0.0611
     14 C           2.0000   -1.6311    0.0000 C.ar    1  UNL1       -0.0598
     15 H           4.9684    1.2438    0.0000 H       1  UNL1        0.0326
     16 H           4.3751    0.7115    0.0000 H       1  UNL1        0.0326
     17 H           5.9880    0.2107    0.0000 H       1  UNL1        0.0429
     18 H           6.5812    0.7430    0.0000 H       1  UNL1        0.0429
     19 H           5.8819   -1.1311    0.0000 H       1  UNL1        0.0810
     20 H           4.8709   -2.5252    0.0000 H       1  UNL1        0.1653
     21 H           2.8660    0.4889    0.0000 H       1  UNL1        0.0624
     22 H           2.8660   -2.7511    0.0000 H       1  UNL1        0.0638
     23 H           7.3845    1.3804    0.0000 H       1  UNL1        0.0391
     24 H           7.8633    2.1150    0.0000 H       1  UNL1        0.0391
     25 H           7.1288    2.5938    0.0000 H       1  UNL1        0.0391
     26 H           6.0717    2.9392    0.0000 H       1  UNL1        0.0391
     27 H           5.1962    2.9866    0.0000 H       1  UNL1        0.0391
     28 H           5.1488    2.1111    0.0000 H       1  UNL1        0.0391
     29 H           1.4631   -0.3211    0.0000 H       1  UNL1        0.0618
     30 H           1.4631   -1.9411    0.0000 H       1  UNL1        0.0618
@<TRIPOS>BOND
     1     1     5    1
     2     1    11    1
     3     1    12    1
     4     2     7   ar
     5     2     8   ar
     6     2    20    1
     7     3     4    1
     8     3     5    1
     9     3    15    1
    10     3    16    1
    11     4     6   ar
    12     4     8   ar
    13     5    17    1
    14     5    18    1
    15     6     7   ar
    16     6     9   ar
    17     7    10   ar
    18     8    19    1
    19     9    13   ar
    20     9    21    1
    21    10    14   ar
    22    10    22    1
    23    11    23    1
    24    11    24    1
    25    11    25    1
    26    12    26    1
    27    12    27    1
    28    12    28    1
    29    13    14   ar
    30    13    29    1
    31    14    30    1
