@<TRIPOS>MOLECULE
IMPHY004486
 35 37 0 0 0
SMALL
GASTEIGER

@<TRIPOS>ATOM
      1 O           5.5443   -0.6708    0.0000 O.2     1  UNL1       -0.4547
      2 O           2.0000   -0.8660    0.0000 O.3     1  UNL1       -0.4913
      3 O           2.0000    1.1340    0.0000 O.3     1  UNL1       -0.5033
      4 O           9.1279   -1.5981    0.0000 O.3     1  UNL1       -0.4950
      5 O           9.1279    1.8660    0.0000 O.3     1  UNL1       -0.5066
      6 C           4.5981    0.6340    0.0000 C.ar    1  UNL1        0.0244
      7 C           6.1279    0.1340    0.0000 C.ar    1  UNL1        0.1365
      8 C           4.5981   -0.3660    0.0000 C.ar    1  UNL1        0.1394
      9 C           5.5443    0.9387    0.0000 C.ar    1  UNL1       -0.0080
     10 C           7.1279    0.1340    0.0000 C.ar    1  UNL1        0.0242
     11 C           3.7320    1.1340    0.0000 C.ar    1  UNL1       -0.0057
     12 C           3.7320   -0.8660    0.0000 C.ar    1  UNL1        0.0266
     13 C           2.8660   -0.3660    0.0000 C.ar    1  UNL1        0.1648
     14 C           2.8660    0.6340    0.0000 C.ar    1  UNL1        0.1592
     15 C           7.6279   -0.7321    0.0000 C.ar    1  UNL1       -0.0091
     16 C           7.6279    1.0000    0.0000 C.ar    1  UNL1       -0.0093
     17 C           8.6279   -0.7321    0.0000 C.ar    1  UNL1        0.1242
     18 C           8.6279    1.0000    0.0000 C.ar    1  UNL1        0.1210
     19 C           9.1279    0.1340    0.0000 C.ar    1  UNL1        0.0216
     20 C           2.0000   -1.8660    0.0000 C.3     1  UNL1        0.0790
     21 C          10.1279   -1.5981    0.0000 C.3     1  UNL1        0.0788
     22 H           5.7369    1.5280    0.0000 H       1  UNL1        0.0661
     23 H           3.7320    1.7540    0.0000 H       1  UNL1        0.0662
     24 H           3.7320   -1.4860    0.0000 H       1  UNL1        0.0692
     25 H           7.3179   -1.2690    0.0000 H       1  UNL1        0.0661
     26 H           7.3179    1.5369    0.0000 H       1  UNL1        0.0661
     27 H           9.7479    0.1340    0.0000 H       1  UNL1        0.0691
     28 H           2.0000    1.7540    0.0000 H       1  UNL1        0.2923
     29 H           1.3800   -1.8660    0.0000 H       1  UNL1        0.0660
     30 H           2.0000   -2.4860    0.0000 H       1  UNL1        0.0660
     31 H           2.6200   -1.8660    0.0000 H       1  UNL1        0.0660
     32 H           9.7479    1.8660    0.0000 H       1  UNL1        0.2921
     33 H          10.1279   -2.2181    0.0000 H       1  UNL1        0.0660
     34 H          10.7479   -1.5981    0.0000 H       1  UNL1        0.0660
     35 H          10.1279   -0.9781    0.0000 H       1  UNL1        0.0660
@<TRIPOS>BOND
     1     1     7   ar
     2     1     8   ar
     3     2    13    1
     4     2    20    1
     5     3    14    1
     6     3    28    1
     7     4    17    1
     8     4    21    1
     9     5    18    1
    10     5    32    1
    11     6     8   ar
    12     6     9   ar
    13     6    11   ar
    14     7     9   ar
    15     7    10    1
    16     8    12   ar
    17     9    22    1
    18    10    15   ar
    19    10    16   ar
    20    11    14   ar
    21    11    23    1
    22    12    13   ar
    23    12    24    1
    24    13    14   ar
    25    15    17   ar
    26    15    25    1
    27    16    18   ar
    28    16    26    1
    29    17    19   ar
    30    18    19   ar
    31    19    27    1
    32    20    29    1
    33    20    30    1
    34    20    31    1
    35    21    33    1
    36    21    34    1
    37    21    35    1
