@<TRIPOS>MOLECULE
IMPHY017496
 43 44 0 0 0
SMALL
GASTEIGER

@<TRIPOS>ATOM
      1 O           2.8660   -4.5000    0.0000 O.3     1  UNL1       -0.3772
      2 O           6.3301    1.5000    0.0000 O.2     1  UNL1       -0.2463
      3 O           4.5981    4.5000    0.0000 O.2     1  UNL1       -0.2675
      4 N           2.8660   -2.5000    0.0000 N.3     1  UNL1       -0.2980
      5 N           4.5981    1.5000    0.0000 N.ar    1  UNL1       -0.2977
      6 N           5.4641    3.0000    0.0000 N.ar    1  UNL1       -0.2640
      7 C           2.8660   -1.5000    0.0000 C.3     1  UNL1       -0.0009
      8 C           3.7320   -1.0000    0.0000 C.3     1  UNL1       -0.0386
      9 C           3.7320   -3.0000    0.0000 C.3     1  UNL1        0.0224
     10 C           2.0000   -3.0000    0.0000 C.3     1  UNL1        0.0224
     11 C           3.7320   -0.0000    0.0000 C.3     1  UNL1       -0.0337
     12 C           4.5981    0.5000    0.0000 C.3     1  UNL1        0.0278
     13 C           3.7320   -4.0000    0.0000 C.3     1  UNL1        0.0604
     14 C           2.0000   -4.0000    0.0000 C.3     1  UNL1        0.0604
     15 C           3.7320    2.0000    0.0000 C.ar    1  UNL1        0.0255
     16 C           5.4641    2.0000    0.0000 C.ar    1  UNL1        0.3319
     17 C           3.7320    3.0000    0.0000 C.ar    1  UNL1        0.0223
     18 C           2.8660    1.5000    0.0000 C.3     1  UNL1       -0.0239
     19 C           4.5981    3.5000    0.0000 C.ar    1  UNL1        0.2565
     20 C           6.3301    3.5000    0.0000 C.3     1  UNL1        0.0196
     21 H           2.6540   -0.9174    0.0000 H       1  UNL1        0.0427
     22 H           2.2554   -1.6077    0.0000 H       1  UNL1        0.0427
     23 H           3.9441   -1.5826    0.0000 H       1  UNL1        0.0278
     24 H           4.3426   -0.8923    0.0000 H       1  UNL1        0.0278
     25 H           4.3426   -3.1077    0.0000 H       1  UNL1        0.0449
     26 H           3.9441   -2.4174    0.0000 H       1  UNL1        0.0449
     27 H           1.7880   -2.4174    0.0000 H       1  UNL1        0.0449
     28 H           1.3894   -3.1077    0.0000 H       1  UNL1        0.0449
     29 H           3.5200    0.5826    0.0000 H       1  UNL1        0.0283
     30 H           3.1215   -0.1077    0.0000 H       1  UNL1        0.0283
     31 H           4.8101   -0.0826    0.0000 H       1  UNL1        0.0493
     32 H           5.2087    0.6077    0.0000 H       1  UNL1        0.0493
     33 H           3.9441   -4.5826    0.0000 H       1  UNL1        0.0572
     34 H           4.3426   -3.8923    0.0000 H       1  UNL1        0.0572
     35 H           1.3894   -3.8923    0.0000 H       1  UNL1        0.0572
     36 H           1.7880   -4.5826    0.0000 H       1  UNL1        0.0572
     37 H           3.1951    3.3100    0.0000 H       1  UNL1        0.0689
     38 H           2.5560    2.0369    0.0000 H       1  UNL1        0.0292
     39 H           2.3291    1.1900    0.0000 H       1  UNL1        0.0292
     40 H           3.1760    0.9631    0.0000 H       1  UNL1        0.0292
     41 H           6.6401    2.9631    0.0000 H       1  UNL1        0.0458
     42 H           6.8671    3.8100    0.0000 H       1  UNL1        0.0458
     43 H           6.0201    4.0369    0.0000 H       1  UNL1        0.0458
@<TRIPOS>BOND
     1     1    13    1
     2     1    14    1
     3     2    16    2
     4     3    19    2
     5     4     7    1
     6     4     9    1
     7     4    10    1
     8     5    12    1
     9     5    15   ar
    10     5    16   ar
    11     6    16   ar
    12     6    19   ar
    13     6    20    1
    14     7     8    1
    15     7    21    1
    16     7    22    1
    17     8    11    1
    18     8    23    1
    19     8    24    1
    20     9    13    1
    21     9    25    1
    22     9    26    1
    23    10    14    1
    24    10    27    1
    25    10    28    1
    26    11    12    1
    27    11    29    1
    28    11    30    1
    29    12    31    1
    30    12    32    1
    31    13    33    1
    32    13    34    1
    33    14    35    1
    34    14    36    1
    35    15    17   ar
    36    15    18    1
    37    17    19   ar
    38    17    37    1
    39    18    38    1
    40    18    39    1
    41    18    40    1
    42    20    41    1
    43    20    42    1
    44    20    43    1
