@<TRIPOS>MOLECULE
IMPHY004690
 31 33 0 0 0
SMALL
GASTEIGER

@<TRIPOS>ATOM
      1 O           6.0682   -2.0427    0.0000 O.2     1  UNL1       -0.4620
      2 O           6.0682    0.9573    0.0000 O.2     1  UNL1       -0.2864
      3 O           2.5381   -2.0668    0.0000 O.3     1  UNL1       -0.5066
      4 O          10.3984    1.4573    0.0000 O.3     1  UNL1       -0.5061
      5 O          10.3984   -1.5427    0.0000 O.2     1  UNL1       -0.2956
      6 C           6.9343   -0.5427    0.0000 C.ar    1  UNL1        0.0643
      7 C           5.2022   -0.5427    0.0000 C.ar    1  UNL1        0.0648
      8 C           7.8003   -0.0427    0.0000 C.ar    1  UNL1       -0.0104
      9 C           6.0682   -0.0427    0.0000 C.ar    1  UNL1        0.2001
     10 C           5.2022   -1.5427    0.0000 C.ar    1  UNL1        0.1419
     11 C           6.9343   -1.5427    0.0000 C.ar    1  UNL1        0.1038
     12 C           8.6663   -0.5427    0.0000 C.ar    1  UNL1       -0.0401
     13 C           4.3083   -0.0080    0.0000 C.ar    1  UNL1       -0.0439
     14 C           7.8003    0.9573    0.0000 C.ar    1  UNL1       -0.0503
     15 C           4.3083   -2.0773    0.0000 C.ar    1  UNL1        0.0228
     16 C           9.5323   -0.0427    0.0000 C.ar    1  UNL1        0.0561
     17 C           3.4022   -1.5635    0.0000 C.ar    1  UNL1        0.1204
     18 C           3.4022   -0.5219    0.0000 C.ar    1  UNL1       -0.0193
     19 C           8.6663    1.4573    0.0000 C.ar    1  UNL1       -0.0189
     20 C           9.5323    0.9573    0.0000 C.ar    1  UNL1        0.1271
     21 C          10.3984   -0.5427    0.0000 C.2     1  UNL1        0.1537
     22 H           7.4712   -1.8527    0.0000 H       1  UNL1        0.1037
     23 H           8.6663   -1.1627    0.0000 H       1  UNL1        0.0632
     24 H           4.3154    0.6120    0.0000 H       1  UNL1        0.0627
     25 H           7.2634    1.2673    0.0000 H       1  UNL1        0.0625
     26 H           4.3154   -2.6973    0.0000 H       1  UNL1        0.0691
     27 H           2.8665   -0.2098    0.0000 H       1  UNL1        0.0654
     28 H           8.6663    2.0773    0.0000 H       1  UNL1        0.0654
     29 H          10.9353   -0.2327    0.0000 H       1  UNL1        0.1083
     30 H           2.0000   -1.7589    0.0000 H       1  UNL1        0.2921
     31 H          10.3984    2.0773    0.0000 H       1  UNL1        0.2922
@<TRIPOS>BOND
     1     1    10   ar
     2     1    11   ar
     3     2     9    2
     4     3    17    1
     5     3    30    1
     6     4    20    1
     7     4    31    1
     8     5    21    2
     9     6     8    1
    10     6     9   ar
    11     6    11   ar
    12     7     9   ar
    13     7    10   ar
    14     7    13   ar
    15     8    12   ar
    16     8    14   ar
    17    10    15   ar
    18    11    22    1
    19    12    16   ar
    20    12    23    1
    21    13    18   ar
    22    13    24    1
    23    14    19   ar
    24    14    25    1
    25    15    17   ar
    26    15    26    1
    27    16    20   ar
    28    16    21    1
    29    17    18   ar
    30    18    27    1
    31    19    20   ar
    32    19    28    1
    33    21    29    1
