@<TRIPOS>MOLECULE
IMPHY016618
 18 18 0 0 0
SMALL
GASTEIGER

@<TRIPOS>ATOM
      1 O           3.5878   -0.7694    0.0000 O.3     1  UNL1       -0.4641
      2 O           2.0000   -1.5784    0.0000 O.2     1  UNL1       -0.2508
      3 C           3.0878    0.7694    0.0000 C.3     1  UNL1        0.0094
      4 C           2.2788    0.1816    0.0000 C.3     1  UNL1        0.0531
      5 C           3.8968    0.1816    0.0000 C.3     1  UNL1        0.0980
      6 C           3.6756    1.5784    0.0000 C.3     1  UNL1       -0.0562
      7 C           2.5000    1.5784    0.0000 C.3     1  UNL1       -0.0562
      8 C           2.5878   -0.7694    0.0000 C.2     1  UNL1        0.3077
      9 H           1.9688    0.7186    0.0000 H       1  UNL1        0.0384
     10 H           1.7124   -0.0705    0.0000 H       1  UNL1        0.0384
     11 H           4.4632   -0.0705    0.0000 H       1  UNL1        0.0703
     12 H           4.2068    0.7186    0.0000 H       1  UNL1        0.0703
     13 H           4.1772    1.2140    0.0000 H       1  UNL1        0.0236
     14 H           4.0400    2.0800    0.0000 H       1  UNL1        0.0236
     15 H           3.1740    1.9429    0.0000 H       1  UNL1        0.0236
     16 H           3.0016    1.9429    0.0000 H       1  UNL1        0.0236
     17 H           2.1356    2.0800    0.0000 H       1  UNL1        0.0236
     18 H           1.9984    1.2140    0.0000 H       1  UNL1        0.0236
@<TRIPOS>BOND
     1     1     5    1
     2     1     8    1
     3     2     8    2
     4     3     4    1
     5     3     5    1
     6     3     6    1
     7     3     7    1
     8     4     8    1
     9     4     9    1
    10     4    10    1
    11     5    11    1
    12     5    12    1
    13     6    13    1
    14     6    14    1
    15     6    15    1
    16     7    16    1
    17     7    17    1
    18     7    18    1
