@<TRIPOS>MOLECULE
IMPHY017473
 27 27 0 0 0
SMALL
GASTEIGER

@<TRIPOS>ATOM
      1 C           4.5981    0.5670    0.0000 C.3     1  UNL1        0.0099
      2 C           3.7320    0.0670    0.0000 C.3     1  UNL1       -0.0106
      3 C           3.7320   -0.9330    0.0000 C.3     1  UNL1       -0.0423
      4 C           4.5981   -1.4330    0.0000 C.3     1  UNL1       -0.0342
      5 C           5.4641    0.0670    0.0000 C.2     1  UNL1       -0.0778
      6 C           4.0981    1.4330    0.0000 C.3     1  UNL1       -0.0521
      7 C           5.4641   -0.9330    0.0000 C.2     1  UNL1       -0.0871
      8 C           5.0981    1.4330    0.0000 C.2     1  UNL1       -0.0809
      9 C           2.8660    0.5670    0.0000 C.2     1  UNL1       -0.0869
     10 C           6.0981    1.4330    0.0000 C.2     1  UNL1       -0.1018
     11 C           2.0000    0.0670    0.0000 C.2     1  UNL1       -0.1023
     12 H           3.7320    0.9170    0.0000 H       1  UNL1        0.0354
     13 H           3.1215   -0.8254    0.0000 H       1  UNL1        0.0274
     14 H           3.5200   -1.5156    0.0000 H       1  UNL1        0.0274
     15 H           4.1996   -1.9080    0.0000 H       1  UNL1        0.0308
     16 H           4.9966   -1.9080    0.0000 H       1  UNL1        0.0308
     17 H           6.0010    0.3770    0.0000 H       1  UNL1        0.0578
     18 H           4.6350    1.7430    0.0000 H       1  UNL1        0.0241
     19 H           3.7881    1.9700    0.0000 H       1  UNL1        0.0241
     20 H           3.5611    1.1230    0.0000 H       1  UNL1        0.0241
     21 H           6.0010   -1.2430    0.0000 H       1  UNL1        0.0569
     22 H           4.7881    1.9700    0.0000 H       1  UNL1        0.0575
     23 H           2.8660    1.1870    0.0000 H       1  UNL1        0.0569
     24 H           6.4081    0.8961    0.0000 H       1  UNL1        0.0532
     25 H           6.4081    1.9700    0.0000 H       1  UNL1        0.0532
     26 H           1.4631    0.3770    0.0000 H       1  UNL1        0.0532
     27 H           2.0000   -0.5530    0.0000 H       1  UNL1        0.0532
@<TRIPOS>BOND
     1     1     2    1
     2     1     5    1
     3     1     6    1
     4     1     8    1
     5     2     3    1
     6     2     9    1
     7     2    12    1
     8     3     4    1
     9     3    13    1
    10     3    14    1
    11     4     7    1
    12     4    15    1
    13     4    16    1
    14     5     7    2
    15     5    17    1
    16     6    18    1
    17     6    19    1
    18     6    20    1
    19     7    21    1
    20     8    10    2
    21     8    22    1
    22     9    11    2
    23     9    23    1
    24    10    24    1
    25    10    25    1
    26    11    26    1
    27    11    27    1
