@<TRIPOS>MOLECULE
IMPHY003249
 38 40 0 0 0
SMALL
GASTEIGER

@<TRIPOS>ATOM
      1 O           7.8805   -1.0720    0.0000 O.3     1  UNL1       -0.4571
      2 O           2.5381   -1.2914    0.0000 O.3     1  UNL1       -0.3917
      3 O           9.4641   -0.2673    0.0000 O.2     1  UNL1       -0.2453
      4 C           5.2022   -0.7673    0.0000 C.3     1  UNL1       -0.0051
      5 C           5.2022    0.2327    0.0000 C.2     1  UNL1       -0.0637
      6 C           6.0682   -1.2673    0.0000 C.3     1  UNL1       -0.0056
      7 C           4.3083   -1.3020    0.0000 C.3     1  UNL1       -0.0176
      8 C           4.3083    0.7674    0.0000 C.3     1  UNL1       -0.0199
      9 C           6.9343   -0.7673    0.0000 C.3     1  UNL1        0.1146
     10 C           6.9343    0.2327    0.0000 C.3     1  UNL1        0.0458
     11 C           3.4022   -0.7881    0.0000 C.3     1  UNL1        0.0566
     12 C           3.4022    0.2535    0.0000 C.3     1  UNL1       -0.0205
     13 C           6.0682    0.7327    0.0000 C.2     1  UNL1       -0.0729
     14 C           5.2022   -1.7673    0.0000 C.3     1  UNL1       -0.0556
     15 C           7.8805    0.5374    0.0000 C.2     1  UNL1        0.0398
     16 C           4.3198    1.7673    0.0000 C.3     1  UNL1       -0.0586
     17 C           8.4641   -0.2673    0.0000 C.2     1  UNL1        0.3356
     18 C           8.1912    1.4880    0.0000 C.2     1  UNL1       -0.0880
     19 H           5.6697   -1.7422    0.0000 H       1  UNL1        0.0309
     20 H           6.4668   -1.7422    0.0000 H       1  UNL1        0.0309
     21 H           3.9147   -1.7810    0.0000 H       1  UNL1        0.0298
     22 H           4.7129   -1.7718    0.0000 H       1  UNL1        0.0298
     23 H           7.0242   -1.6125    0.0000 H       1  UNL1        0.0743
     24 H           3.7744    1.0825    0.0000 H       1  UNL1        0.0344
     25 H           7.0242    1.0779    0.0000 H       1  UNL1        0.0430
     26 H           2.8647   -0.4791    0.0000 H       1  UNL1        0.0594
     27 H           3.1932    0.8372    0.0000 H       1  UNL1        0.0296
     28 H           2.7914    0.1474    0.0000 H       1  UNL1        0.0296
     29 H           6.0682    1.3527    0.0000 H       1  UNL1        0.0579
     30 H           4.5822   -1.7673    0.0000 H       1  UNL1        0.0238
     31 H           5.2022   -2.3873    0.0000 H       1  UNL1        0.0238
     32 H           5.8222   -1.7673    0.0000 H       1  UNL1        0.0238
     33 H           4.9398    1.7601    0.0000 H       1  UNL1        0.0235
     34 H           4.3270    2.3873    0.0000 H       1  UNL1        0.0235
     35 H           3.6999    1.7745    0.0000 H       1  UNL1        0.0235
     36 H           2.0000   -0.9835    0.0000 H       1  UNL1        0.2098
     37 H           8.7978    1.6158    0.0000 H       1  UNL1        0.0540
     38 H           7.7771    1.9494    0.0000 H       1  UNL1        0.0540
@<TRIPOS>BOND
     1     1     9    1
     2     1    17    1
     3    11     2    1
     4     2    36    1
     5     3    17    2
     6     4     5    1
     7     4     6    1
     8     4     7    1
     9     4    14    1
    10     5     8    1
    11     5    13    2
    12     6     9    1
    13     6    19    1
    14     6    20    1
    15     7    11    1
    16     7    21    1
    17     7    22    1
    18     8    12    1
    19     8    16    1
    20     8    24    1
    21     9    10    1
    22     9    23    1
    23    10    13    1
    24    10    15    1
    25    10    25    1
    26    11    12    1
    27    11    26    1
    28    12    27    1
    29    12    28    1
    30    13    29    1
    31    14    30    1
    32    14    31    1
    33    14    32    1
    34    15    17    1
    35    15    18    2
    36    16    33    1
    37    16    34    1
    38    16    35    1
    39    18    37    1
    40    18    38    1
