@<TRIPOS>MOLECULE
IMPHY016719
 30 30 0 0 0
SMALL
GASTEIGER

@<TRIPOS>ATOM
      1 O           4.5981    3.0000    0.0000 O.2     1  UNL1       -0.3010
      2 C           2.8660    0.0000    0.0000 C.3     1  UNL1       -0.0344
      3 C           2.8660    1.0000    0.0000 C.3     1  UNL1       -0.0344
      4 C           2.0000   -0.5000    0.0000 C.3     1  UNL1       -0.0460
      5 C           3.7320   -0.5000    0.0000 C.3     1  UNL1       -0.0314
      6 C           2.0000   -1.5000    0.0000 C.3     1  UNL1       -0.0317
      7 C           2.8660   -2.0000    0.0000 C.2     1  UNL1       -0.0765
      8 C           3.7320    1.5000    0.0000 C.3     1  UNL1        0.0056
      9 C           3.7320   -1.5000    0.0000 C.2     1  UNL1       -0.0848
     10 C           2.0000    1.5000    0.0000 C.3     1  UNL1       -0.0618
     11 C           2.8660   -3.0000    0.0000 C.3     1  UNL1       -0.0438
     12 C           3.7320    2.5000    0.0000 C.2     1  UNL1        0.1206
     13 H           3.4030    0.3100    0.0000 H       1  UNL1        0.0306
     14 H           2.8660    1.6200    0.0000 H       1  UNL1        0.0305
     15 H           1.7880    0.0826    0.0000 H       1  UNL1        0.0271
     16 H           1.3894   -0.6077    0.0000 H       1  UNL1        0.0271
     17 H           4.3426   -0.6077    0.0000 H       1  UNL1        0.0310
     18 H           3.9441    0.0826    0.0000 H       1  UNL1        0.0310
     19 H           1.3894   -1.3923    0.0000 H       1  UNL1        0.0310
     20 H           1.7880   -2.0826    0.0000 H       1  UNL1        0.0310
     21 H           3.9441    0.9174    0.0000 H       1  UNL1        0.0341
     22 H           4.3426    1.6077    0.0000 H       1  UNL1        0.0341
     23 H           4.2690   -1.8100    0.0000 H       1  UNL1        0.0572
     24 H           2.3100    2.0369    0.0000 H       1  UNL1        0.0233
     25 H           1.4631    1.8100    0.0000 H       1  UNL1        0.0233
     26 H           1.6900    0.9631    0.0000 H       1  UNL1        0.0233
     27 H           2.2460   -3.0000    0.0000 H       1  UNL1        0.0274
     28 H           2.8660   -3.6200    0.0000 H       1  UNL1        0.0274
     29 H           3.4860   -3.0000    0.0000 H       1  UNL1        0.0274
     30 H           3.1951    2.8100    0.0000 H       1  UNL1        0.1026
@<TRIPOS>BOND
     1     1    12    2
     2     2     3    1
     3     2     4    1
     4     2     5    1
     5     2    13    1
     6     3     8    1
     7     3    10    1
     8     3    14    1
     9     4     6    1
    10     4    15    1
    11     4    16    1
    12     5     9    1
    13     5    17    1
    14     5    18    1
    15     6     7    1
    16     6    19    1
    17     6    20    1
    18     7     9    2
    19     7    11    1
    20     8    12    1
    21     8    21    1
    22     8    22    1
    23     9    23    1
    24    10    24    1
    25    10    25    1
    26    10    26    1
    27    11    27    1
    28    11    28    1
    29    11    29    1
    30    12    30    1
