@<TRIPOS>MOLECULE
IMPHY010086
 25 24 0 0 0
SMALL
GASTEIGER

@<TRIPOS>ATOM
      1 O           2.5369    0.7500    0.0000 O.3     1  UNL1       -0.3920
      2 C           4.2690    0.7500    0.0000 C.3     1  UNL1       -0.0237
      3 C           3.4030    0.2500    0.0000 C.3     1  UNL1        0.0527
      4 C           5.1350    0.2500    0.0000 C.3     1  UNL1       -0.0322
      5 C           6.0010    0.7500    0.0000 C.2     1  UNL1       -0.0852
      6 C           3.4030   -0.7500    0.0000 C.3     1  UNL1       -0.0389
      7 C           6.8671    0.2500    0.0000 C.2     1  UNL1       -0.0796
      8 C           7.7331    0.7500    0.0000 C.3     1  UNL1       -0.0440
      9 C           6.8671   -0.7500    0.0000 C.3     1  UNL1       -0.0440
     10 H           4.6675    1.2250    0.0000 H       1  UNL1        0.0293
     11 H           3.8705    1.2250    0.0000 H       1  UNL1        0.0293
     12 H           3.4030    1.1000    0.0000 H       1  UNL1        0.0590
     13 H           4.7365   -0.2249    0.0000 H       1  UNL1        0.0308
     14 H           5.5335   -0.2249    0.0000 H       1  UNL1        0.0308
     15 H           6.0010    1.3700    0.0000 H       1  UNL1        0.0571
     16 H           2.7830   -0.7500    0.0000 H       1  UNL1        0.0254
     17 H           3.4030   -1.3700    0.0000 H       1  UNL1        0.0254
     18 H           4.0230   -0.7500    0.0000 H       1  UNL1        0.0254
     19 H           2.0000    0.4400    0.0000 H       1  UNL1        0.2098
     20 H           8.0431    0.2131    0.0000 H       1  UNL1        0.0274
     21 H           8.2700    1.0600    0.0000 H       1  UNL1        0.0274
     22 H           7.4231    1.2869    0.0000 H       1  UNL1        0.0274
     23 H           6.2471   -0.7500    0.0000 H       1  UNL1        0.0274
     24 H           6.8671   -1.3700    0.0000 H       1  UNL1        0.0274
     25 H           7.4871   -0.7500    0.0000 H       1  UNL1        0.0274
@<TRIPOS>BOND
     1     1     3    1
     2     1    19    1
     3     2     3    1
     4     2     4    1
     5     2    10    1
     6     2    11    1
     7     3     6    1
     8     3    12    1
     9     4     5    1
    10     4    13    1
    11     4    14    1
    12     5     7    2
    13     5    15    1
    14     6    16    1
    15     6    17    1
    16     6    18    1
    17     7     8    1
    18     7     9    1
    19     8    20    1
    20     8    21    1
    21     8    22    1
    22     9    23    1
    23     9    24    1
    24     9    25    1
