@<TRIPOS>MOLECULE
IMPHY017963
 7 7 0 0 0
SMALL
GASTEIGER

@<TRIPOS>ATOM
      1 O           3.7071    0.6464    0.0000 O.3     1  UNL1       -0.4551
      2 O           2.0000    1.3536    0.0000 O.2     1  UNL1       -0.2500
      3 C           3.7071   -0.3536    0.0000 C.3     1  UNL1        0.1467
      4 C           2.7071   -0.3536    0.0000 C.3     1  UNL1        0.1494
      5 C           3.7071   -1.3536    0.0000 C.3     1  UNL1        0.0443
      6 C           4.7071   -0.3536    0.0000 C.3     1  UNL1        0.0443
      7 C           2.7071    0.6464    0.0000 C.2     1  UNL1        0.3204
@<TRIPOS>BOND
     1     1     3    1
     2     1     7    1
     3     2     7    2
     4     3     4    1
     5     3     5    1
     6     3     6    1
     7     4     7    1
