@<TRIPOS>MOLECULE
IMPHY001266
 57 60 0 0 0
SMALL
GASTEIGER

@<TRIPOS>ATOM
      1 O           5.1350   -1.2857    0.0000 O.3     1  UNL1       -0.3313
      2 O           6.8671   -1.2857    0.0000 O.3     1  UNL1       -0.4515
      3 O           5.1350   -4.2857    0.0000 O.3     1  UNL1       -0.3864
      4 O           3.4030   -3.2857    0.0000 O.3     1  UNL1       -0.3865
      5 O           6.8671   -3.2857    0.0000 O.3     1  UNL1       -0.3829
      6 O           2.5369   -1.7857    0.0000 O.3     1  UNL1       -0.3924
      7 O           7.7331    1.2143    0.0000 O.2     1  UNL1       -0.1997
      8 O           4.2308    1.2112    0.0000 O.3     1  UNL1       -0.5057
      9 O           9.4651   -2.7857    0.0000 O.3     1  UNL1       -0.4913
     10 O           5.9889    4.2836    0.0000 O.3     1  UNL1       -0.5063
     11 O          11.1972    0.2143    0.0000 O.3     1  UNL1       -0.5032
     12 O          11.1972   -1.7857    0.0000 O.3     1  UNL1       -0.5009
     13 C           5.1350   -3.2857    0.0000 C.3     1  UNL1        0.1152
     14 C           4.2690   -2.7857    0.0000 C.3     1  UNL1        0.1120
     15 C           6.0010   -2.7857    0.0000 C.3     1  UNL1        0.1454
     16 C           4.2690   -1.7857    0.0000 C.3     1  UNL1        0.1140
     17 C           6.0010   -1.7857    0.0000 C.3     1  UNL1        0.2312
     18 C           3.4030   -1.2857    0.0000 C.3     1  UNL1        0.0731
     19 C           6.8671   -0.2857    0.0000 C.ar    1  UNL1        0.2288
     20 C           7.7331    0.2143    0.0000 C.ar    1  UNL1        0.4047
     21 C           6.0010    0.2143    0.0000 C.ar    1  UNL1        0.0093
     22 C           6.0010    1.2143    0.0000 C.ar    1  UNL1        0.1241
     23 C           8.5991   -0.2857    0.0000 C.ar    1  UNL1        0.0899
     24 C           6.8671    1.7143    0.0000 C.ar    1  UNL1        0.3708
     25 C           5.0910    1.7212    0.0000 C.ar    1  UNL1        0.1366
     26 C           6.8831    2.7558    0.0000 C.ar    1  UNL1        0.0847
     27 C           8.5991   -1.2857    0.0000 C.ar    1  UNL1        0.0002
     28 C           9.4651    0.2143    0.0000 C.ar    1  UNL1       -0.0000
     29 C           5.0830    2.7628    0.0000 C.ar    1  UNL1        0.0225
     30 C           5.9851    3.2836    0.0000 C.ar    1  UNL1        0.1293
     31 C           9.4651   -1.7857    0.0000 C.ar    1  UNL1        0.1658
     32 C          10.3312   -0.2857    0.0000 C.ar    1  UNL1        0.1628
     33 C          10.3312   -1.2857    0.0000 C.ar    1  UNL1        0.2008
     34 C          10.3312   -3.2857    0.0000 C.3     1  UNL1        0.0790
     35 H           5.6720   -3.5957    0.0000 H       1  UNL1        0.0648
     36 H           4.2690   -3.4057    0.0000 H       1  UNL1        0.0647
     37 H           6.5380   -2.4757    0.0000 H       1  UNL1        0.0683
     38 H           4.2690   -1.1657    0.0000 H       1  UNL1        0.0647
     39 H           6.0010   -1.1657    0.0000 H       1  UNL1        0.1084
     40 H           3.8015   -0.8107    0.0000 H       1  UNL1        0.0584
     41 H           3.0044   -0.8107    0.0000 H       1  UNL1        0.0584
     42 H           4.5981   -4.5957    0.0000 H       1  UNL1        0.2100
     43 H           3.4030   -3.9057    0.0000 H       1  UNL1        0.2100
     44 H           6.8671   -3.9057    0.0000 H       1  UNL1        0.2102
     45 H           2.0000   -1.4757    0.0000 H       1  UNL1        0.2095
     46 H           5.4641   -0.0957    0.0000 H       1  UNL1        0.0667
     47 H           7.4236    3.0596    0.0000 H       1  UNL1        0.0749
     48 H           8.0622   -1.5957    0.0000 H       1  UNL1        0.0664
     49 H           9.4651    0.8343    0.0000 H       1  UNL1        0.0664
     50 H           4.5449    3.0707    0.0000 H       1  UNL1        0.0691
     51 H           3.6904    1.5150    0.0000 H       1  UNL1        0.2922
     52 H           5.4532    4.5957    0.0000 H       1  UNL1        0.2921
     53 H          11.1972    0.8343    0.0000 H       1  UNL1        0.2923
     54 H          11.7341   -1.4757    0.0000 H       1  UNL1        0.2924
     55 H          10.0212   -3.8226    0.0000 H       1  UNL1        0.0660
     56 H          10.8681   -3.5957    0.0000 H       1  UNL1        0.0660
     57 H          10.6412   -2.7487    0.0000 H       1  UNL1        0.0660
@<TRIPOS>UNITY_ATOM_ATTR
7 1
charge 1
@<TRIPOS>BOND
     1     1    16    1
     2     1    17    1
     3    17     2    1
     4     2    19    1
     5    13     3    1
     6     3    42    1
     7    14     4    1
     8     4    43    1
     9    15     5    1
    10     5    44    1
    11     6    18    1
    12     6    45    1
    13     7    20   ar
    14     7    24   ar
    15     8    25    1
    16     8    51    1
    17     9    31    1
    18     9    34    1
    19    10    30    1
    20    10    52    1
    21    11    32    1
    22    11    53    1
    23    12    33    1
    24    12    54    1
    25    13    14    1
    26    13    15    1
    27    13    35    1
    28    14    16    1
    29    14    36    1
    30    15    17    1
    31    15    37    1
    32    16    18    1
    33    16    38    1
    34    17    39    1
    35    18    40    1
    36    18    41    1
    37    19    20   ar
    38    19    21   ar
    39    20    23    1
    40    21    22   ar
    41    21    46    1
    42    22    24   ar
    43    22    25   ar
    44    23    27   ar
    45    23    28   ar
    46    24    26   ar
    47    25    29   ar
    48    26    30   ar
    49    26    47    1
    50    27    31   ar
    51    27    48    1
    52    28    32   ar
    53    28    49    1
    54    29    30   ar
    55    29    50    1
    56    31    33   ar
    57    32    33   ar
    58    34    55    1
    59    34    56    1
    60    34    57    1
