@<TRIPOS>MOLECULE
IMPHY017599
 40 41 0 0 0
SMALL
GASTEIGER

@<TRIPOS>ATOM
      1 O           2.5369   -0.5053    0.0000 O.3     1  UNL1       -0.3875
      2 C           5.1350   -0.0053    0.0000 C.3     1  UNL1       -0.0024
      3 C           5.1350    0.9947    0.0000 C.3     1  UNL1       -0.0312
      4 C           6.0290   -0.5399    0.0000 C.3     1  UNL1       -0.0221
      5 C           4.2690    1.4947    0.0000 C.3     1  UNL1       -0.0468
      6 C           6.0290    1.5294    0.0000 C.3     1  UNL1       -0.0457
      7 C           4.2690   -0.5053    0.0000 C.2     1  UNL1       -0.0421
      8 C           3.4030    0.9947    0.0000 C.3     1  UNL1       -0.0227
      9 C           3.4030   -0.0053    0.0000 C.3     1  UNL1        0.0765
     10 C           6.9350    1.0156    0.0000 C.3     1  UNL1       -0.0312
     11 C           6.9350   -0.0261    0.0000 C.2     1  UNL1       -0.0700
     12 C           5.1350   -1.0053    0.0000 C.3     1  UNL1       -0.0552
     13 C           7.7991   -0.5294    0.0000 C.2     1  UNL1       -0.0764
     14 C           4.2690   -1.5053    0.0000 C.2     1  UNL1       -0.0965
     15 C           8.6671   -0.0328    0.0000 C.3     1  UNL1       -0.0438
     16 C           7.7953   -1.5294    0.0000 C.3     1  UNL1       -0.0438
     17 H           5.1302    1.6147    0.0000 H       1  UNL1        0.0309
     18 H           5.6244   -1.0097    0.0000 H       1  UNL1        0.0319
     19 H           6.4226   -1.0189    0.0000 H       1  UNL1        0.0319
     20 H           4.6675    1.9697    0.0000 H       1  UNL1        0.0269
     21 H           3.8705    1.9697    0.0000 H       1  UNL1        0.0269
     22 H           6.4226    2.0084    0.0000 H       1  UNL1        0.0271
     23 H           5.6244    1.9992    0.0000 H       1  UNL1        0.0271
     24 H           3.1909    1.5774    0.0000 H       1  UNL1        0.0293
     25 H           2.7924    0.8871    0.0000 H       1  UNL1        0.0293
     26 H           3.4030   -0.6253    0.0000 H       1  UNL1        0.0640
     27 H           7.5459    0.9095    0.0000 H       1  UNL1        0.0310
     28 H           7.1441    1.5992    0.0000 H       1  UNL1        0.0310
     29 H           4.5150   -1.0053    0.0000 H       1  UNL1        0.0238
     30 H           5.1350   -1.6253    0.0000 H       1  UNL1        0.0238
     31 H           5.7550   -1.0053    0.0000 H       1  UNL1        0.0238
     32 H           3.7320   -1.8153    0.0000 H       1  UNL1        0.0535
     33 H           4.8059   -1.8153    0.0000 H       1  UNL1        0.0535
     34 H           2.0000   -0.1953    0.0000 H       1  UNL1        0.2102
     35 H           8.9750   -0.5709    0.0000 H       1  UNL1        0.0274
     36 H           9.2052    0.2752    0.0000 H       1  UNL1        0.0274
     37 H           8.3591    0.5054    0.0000 H       1  UNL1        0.0274
     38 H           7.1753   -1.5270    0.0000 H       1  UNL1        0.0274
     39 H           7.7929   -2.1494    0.0000 H       1  UNL1        0.0274
     40 H           8.4152   -1.5318    0.0000 H       1  UNL1        0.0274
@<TRIPOS>BOND
     1     9     1    1
     2     1    34    1
     3     2     3    1
     4     2     4    1
     5     2     7    1
     6     2    12    1
     7     3     5    1
     8     3     6    1
     9     3    17    1
    10     4    11    1
    11     4    18    1
    12     4    19    1
    13     5     8    1
    14     5    20    1
    15     5    21    1
    16     6    10    1
    17     6    22    1
    18     6    23    1
    19     7     9    1
    20     7    14    2
    21     8     9    1
    22     8    24    1
    23     8    25    1
    24     9    26    1
    25    10    11    1
    26    10    27    1
    27    10    28    1
    28    11    13    2
    29    12    29    1
    30    12    30    1
    31    12    31    1
    32    13    15    1
    33    13    16    1
    34    14    32    1
    35    14    33    1
    36    15    35    1
    37    15    36    1
    38    15    37    1
    39    16    38    1
    40    16    39    1
    41    16    40    1
