@<TRIPOS>MOLECULE
IMPHY005071
 17 17 0 0 0
SMALL
GASTEIGER

@<TRIPOS>ATOM
      1 S           3.7320    2.7500    0.0000 S.2     1  UNL1        0.0203
      2 N           3.7320    0.7500    0.0000 N.2     1  UNL1       -0.2299
      3 C           2.8660   -0.7500    0.0000 C.ar    1  UNL1       -0.0254
      4 C           2.8660    0.2500    0.0000 C.3     1  UNL1        0.0745
      5 C           2.0000   -1.2500    0.0000 C.ar    1  UNL1       -0.0568
      6 C           3.7320   -1.2500    0.0000 C.ar    1  UNL1       -0.0568
      7 C           2.0000   -2.2500    0.0000 C.ar    1  UNL1       -0.0614
      8 C           3.7320   -2.2500    0.0000 C.ar    1  UNL1       -0.0614
      9 C           2.8660   -2.7500    0.0000 C.ar    1  UNL1       -0.0617
     10 C           3.7320    1.7500    0.0000 C.1     1  UNL1        0.0361
     11 H           2.6540    0.8326    0.0000 H       1  UNL1        0.0566
     12 H           2.2554    0.1423    0.0000 H       1  UNL1        0.0566
     13 H           1.4631   -0.9400    0.0000 H       1  UNL1        0.0621
     14 H           4.2690   -0.9400    0.0000 H       1  UNL1        0.0621
     15 H           1.4631   -2.5600    0.0000 H       1  UNL1        0.0618
     16 H           4.2690   -2.5600    0.0000 H       1  UNL1        0.0618
     17 H           2.8660   -3.3700    0.0000 H       1  UNL1        0.0618
@<TRIPOS>BOND
     1     1    10    2
     2     2     4    1
     3     2    10    2
     4     3     4    1
     5     3     5   ar
     6     3     6   ar
     7     4    11    1
     8     4    12    1
     9     5     7   ar
    10     5    13    1
    11     6     8   ar
    12     6    14    1
    13     7     9   ar
    14     7    15    1
    15     8     9   ar
    16     8    16    1
    17     9    17    1
