@<TRIPOS>MOLECULE
IMPHY013344
 39 40 0 0 0
SMALL
GASTEIGER

@<TRIPOS>ATOM
      1 O           6.3301    1.2500    0.0000 O.3     1  UNL1       -0.3856
      2 O           5.4641    5.7500    0.0000 O.3     1  UNL1       -0.5068
      3 O           2.8660    0.2500    0.0000 O.2     1  UNL1       -0.2708
      4 O           2.8660   -5.7500    0.0000 O.3     1  UNL1       -0.5068
      5 N           4.5981    0.2500    0.0000 N.am    1  UNL1       -0.3090
      6 C           5.4641    1.7500    0.0000 C.3     1  UNL1        0.0956
      7 C           4.5981    1.2500    0.0000 C.3     1  UNL1        0.0420
      8 C           5.4641    2.7500    0.0000 C.ar    1  UNL1       -0.0174
      9 C           4.5981    3.2500    0.0000 C.ar    1  UNL1       -0.0526
     10 C           6.3301    3.2500    0.0000 C.ar    1  UNL1       -0.0526
     11 C           4.5981    4.2500    0.0000 C.ar    1  UNL1       -0.0198
     12 C           6.3301    4.2500    0.0000 C.ar    1  UNL1       -0.0198
     13 C           5.4641    4.7500    0.0000 C.ar    1  UNL1        0.1169
     14 C           3.7320   -0.2500    0.0000 C.2     1  UNL1        0.2370
     15 C           3.7320   -1.2500    0.0000 C.2     1  UNL1        0.0007
     16 C           2.8660   -2.7500    0.0000 C.ar    1  UNL1       -0.0247
     17 C           2.8660   -1.7500    0.0000 C.2     1  UNL1       -0.0497
     18 C           3.7320   -3.2500    0.0000 C.ar    1  UNL1       -0.0511
     19 C           2.0000   -3.2500    0.0000 C.ar    1  UNL1       -0.0511
     20 C           3.7320   -4.2500    0.0000 C.ar    1  UNL1       -0.0196
     21 C           2.0000   -4.2500    0.0000 C.ar    1  UNL1       -0.0196
     22 C           2.8660   -4.7500    0.0000 C.ar    1  UNL1        0.1169
     23 H           5.4641    1.1300    0.0000 H       1  UNL1        0.0659
     24 H           4.3860    1.8326    0.0000 H       1  UNL1        0.0491
     25 H           3.9875    1.1423    0.0000 H       1  UNL1        0.0491
     26 H           4.0611    2.9400    0.0000 H       1  UNL1        0.0622
     27 H           6.8671    2.9400    0.0000 H       1  UNL1        0.0622
     28 H           5.1350   -0.0600    0.0000 H       1  UNL1        0.1491
     29 H           4.0611    4.5600    0.0000 H       1  UNL1        0.0654
     30 H           6.8671    4.5600    0.0000 H       1  UNL1        0.0654
     31 H           6.8671    1.5600    0.0000 H       1  UNL1        0.2103
     32 H           4.2690   -1.5600    0.0000 H       1  UNL1        0.0669
     33 H           2.3291   -1.4400    0.0000 H       1  UNL1        0.0625
     34 H           4.2690   -2.9400    0.0000 H       1  UNL1        0.0625
     35 H           1.4631   -2.9400    0.0000 H       1  UNL1        0.0625
     36 H           4.2690   -4.5600    0.0000 H       1  UNL1        0.0654
     37 H           1.4631   -4.5600    0.0000 H       1  UNL1        0.0654
     38 H           6.0010    6.0600    0.0000 H       1  UNL1        0.2921
     39 H           2.3291   -6.0600    0.0000 H       1  UNL1        0.2921
@<TRIPOS>BOND
     1     1     6    1
     2     1    31    1
     3     2    13    1
     4     2    38    1
     5     3    14    2
     6     4    22    1
     7     4    39    1
     8     5     7    1
     9     5    14   am
    10     5    28    1
    11     6     7    1
    12     6     8    1
    13     6    23    1
    14     7    24    1
    15     7    25    1
    16     8     9   ar
    17     8    10   ar
    18     9    11   ar
    19     9    26    1
    20    10    12   ar
    21    10    27    1
    22    11    13   ar
    23    11    29    1
    24    12    13   ar
    25    12    30    1
    26    14    15    1
    27    15    17    2
    28    15    32    1
    29    16    17    1
    30    16    18   ar
    31    16    19   ar
    32    17    33    1
    33    18    20   ar
    34    18    34    1
    35    19    21   ar
    36    19    35    1
    37    20    22   ar
    38    20    36    1
    39    21    22   ar
    40    21    37    1
