@<TRIPOS>MOLECULE
IMPHY008035
 43 44 0 0 0
SMALL
GASTEIGER

@<TRIPOS>ATOM
      1 O           2.6200   -1.5650    0.0000 O.3     1  UNL1       -0.3885
      2 O           3.1200    2.3010    0.0000 O.3     1  UNL1       -0.3912
      3 C           3.9860    0.8010    0.0000 C.3     1  UNL1       -0.0004
      4 C           3.9860   -0.1990    0.0000 C.3     1  UNL1       -0.0015
      5 C           4.9322   -0.5037    0.0000 C.3     1  UNL1       -0.0314
      6 C           3.1200   -0.6990    0.0000 C.3     1  UNL1        0.0670
      7 C           4.9322    1.1057    0.0000 C.3     1  UNL1       -0.0446
      8 C           3.1200    1.3010    0.0000 C.3     1  UNL1        0.0610
      9 C           5.5158    0.3010    0.0000 C.3     1  UNL1       -0.0490
     10 C           2.2540   -0.1990    0.0000 C.3     1  UNL1       -0.0216
     11 C           2.2540    0.8010    0.0000 C.3     1  UNL1       -0.0237
     12 C           3.9860    1.8010    0.0000 C.3     1  UNL1       -0.0569
     13 C           5.2429   -1.4543    0.0000 C.3     1  UNL1       -0.0291
     14 C           3.6200   -1.5650    0.0000 C.3     1  UNL1       -0.0358
     15 C           6.2214   -1.6605    0.0000 C.2     1  UNL1       -0.0794
     16 C           6.5321   -2.6110    0.0000 C.3     1  UNL1       -0.0440
     17 C           6.8893   -0.9162    0.0000 C.2     1  UNL1       -0.0997
     18 H           4.0760   -1.0442    0.0000 H       1  UNL1        0.0337
     19 H           5.5447   -0.5999    0.0000 H       1  UNL1        0.0308
     20 H           5.4696    1.4150    0.0000 H       1  UNL1        0.0272
     21 H           4.6812    1.6726    0.0000 H       1  UNL1        0.0272
     22 H           2.5831    1.6110    0.0000 H       1  UNL1        0.0599
     23 H           5.9767   -0.1137    0.0000 H       1  UNL1        0.0268
     24 H           5.9767    0.7157    0.0000 H       1  UNL1        0.0268
     25 H           1.6434   -0.0913    0.0000 H       1  UNL1        0.0294
     26 H           2.0419   -0.7816    0.0000 H       1  UNL1        0.0294
     27 H           2.0419    1.3836    0.0000 H       1  UNL1        0.0291
     28 H           1.6434    0.6933    0.0000 H       1  UNL1        0.0291
     29 H           4.6060    1.8010    0.0000 H       1  UNL1        0.0236
     30 H           3.9860    2.4210    0.0000 H       1  UNL1        0.0236
     31 H           3.3660    1.8010    0.0000 H       1  UNL1        0.0236
     32 H           4.6291   -1.5416    0.0000 H       1  UNL1        0.0313
     33 H           5.2223   -2.0739    0.0000 H       1  UNL1        0.0313
     34 H           3.0831   -1.8750    0.0000 H       1  UNL1        0.0257
     35 H           3.9300   -2.1020    0.0000 H       1  UNL1        0.0257
     36 H           4.1569   -1.2550    0.0000 H       1  UNL1        0.0257
     37 H           2.0000   -1.5650    0.0000 H       1  UNL1        0.2102
     38 H           2.5831    2.6110    0.0000 H       1  UNL1        0.2098
     39 H           5.9428   -2.8036    0.0000 H       1  UNL1        0.0274
     40 H           6.7247   -3.2003    0.0000 H       1  UNL1        0.0274
     41 H           7.1214   -2.4184    0.0000 H       1  UNL1        0.0274
     42 H           7.4959   -1.0440    0.0000 H       1  UNL1        0.0534
     43 H           6.6966   -0.3269    0.0000 H       1  UNL1        0.0534
@<TRIPOS>BOND
     1     6     1    1
     2     1    37    1
     3     8     2    1
     4     2    38    1
     5     3     4    1
     6     3     7    1
     7     3     8    1
     8     3    12    1
     9     4     5    1
    10     4     6    1
    11     4    18    1
    12     5     9    1
    13     5    13    1
    14     5    19    1
    15     6    10    1
    16     6    14    1
    17     7     9    1
    18     7    20    1
    19     7    21    1
    20     8    11    1
    21     8    22    1
    22     9    23    1
    23     9    24    1
    24    10    11    1
    25    10    25    1
    26    10    26    1
    27    11    27    1
    28    11    28    1
    29    12    29    1
    30    12    30    1
    31    12    31    1
    32    13    15    1
    33    13    32    1
    34    13    33    1
    35    14    34    1
    36    14    35    1
    37    14    36    1
    38    15    16    1
    39    15    17    2
    40    16    39    1
    41    16    40    1
    42    16    41    1
    43    17    42    1
    44    17    43    1
