@<TRIPOS>MOLECULE
IMPHY004215
 39 41 0 0 0
SMALL
GASTEIGER

@<TRIPOS>ATOM
      1 C           5.5776   -0.4478    0.0000 C.3     1  UNL1       -0.0219
      2 C           2.7608   -0.3626    0.0000 C.3     1  UNL1       -0.0252
      3 C           3.9010    0.5945    0.0000 C.3     1  UNL1       -0.0278
      4 C           4.1598   -0.3714    0.0000 C.3     1  UNL1       -0.0109
      5 C           2.8724   -1.3660    0.0000 C.3     1  UNL1       -0.0312
      6 C           5.4056   -1.4426    0.0000 C.3     1  UNL1       -0.0468
      7 C           3.9794    2.0552    0.0000 C.3     1  UNL1       -0.0309
      8 C           5.3807    1.2462    0.0000 C.2     1  UNL1       -0.0726
      9 C           3.6144   -2.0506    0.0000 C.3     1  UNL1       -0.0476
     10 C           6.5761   -0.5016    0.0000 C.3     1  UNL1       -0.0587
     11 C           4.6236   -2.0811    0.0000 C.3     1  UNL1       -0.0520
     12 C           4.9740    2.1598    0.0000 C.2     1  UNL1       -0.0844
     13 C           2.2642   -2.1598    0.0000 C.3     1  UNL1       -0.0595
     14 C           1.8726   -1.3854    0.0000 C.3     1  UNL1       -0.0595
     15 C           6.3588    1.0383    0.0000 C.3     1  UNL1       -0.0435
     16 H           1.9108   -0.3573    0.0000 H       1  UNL1        0.0315
     17 H           3.6810    1.4155    0.0000 H       1  UNL1        0.0312
     18 H           4.3798   -1.1925    0.0000 H       1  UNL1        0.0354
     19 H           6.0216   -1.3720    0.0000 H       1  UNL1        0.0271
     20 H           5.6467   -2.0138    0.0000 H       1  UNL1        0.0271
     21 H           3.3594    2.0558    0.0000 H       1  UNL1        0.0310
     22 H           3.9473    2.6744    0.0000 H       1  UNL1        0.0310
     23 H           3.7709   -2.6505    0.0000 H       1  UNL1        0.0271
     24 H           3.0828   -2.3695    0.0000 H       1  UNL1        0.0271
     25 H           6.6095    0.1175    0.0000 H       1  UNL1        0.0235
     26 H           7.1952   -0.5349    0.0000 H       1  UNL1        0.0235
     27 H           6.5428   -1.1207    0.0000 H       1  UNL1        0.0235
     28 H           5.1350   -2.4316    0.0000 H       1  UNL1        0.0266
     29 H           4.4312   -2.6705    0.0000 H       1  UNL1        0.0266
     30 H           5.2840    2.6967    0.0000 H       1  UNL1        0.0572
     31 H           1.8846   -2.0053    0.0000 H       1  UNL1        0.0235
     32 H           1.2527   -1.3974    0.0000 H       1  UNL1        0.0235
     33 H           2.7564   -2.5369    0.0000 H       1  UNL1        0.0235
     34 H           1.8871   -2.6519    0.0000 H       1  UNL1        0.0235
     35 H           1.7721   -1.7827    0.0000 H       1  UNL1        0.0235
     36 H           1.8606   -0.7655    0.0000 H       1  UNL1        0.0235
     37 H           6.4878    1.6448    0.0000 H       1  UNL1        0.0274
     38 H           6.9653    0.9094    0.0000 H       1  UNL1        0.0274
     39 H           6.2300    0.4319    0.0000 H       1  UNL1        0.0274
@<TRIPOS>BOND
     1     1     3    1
     2     1     4    1
     3     1     6    1
     4     1    10    1
     5     2     3    1
     6     2     4    1
     7     2     5    1
     8     2    16    1
     9     3     7    1
    10     3    17    1
    11     4     8    1
    12     4    18    1
    13     5     9    1
    14     5    13    1
    15     5    14    1
    16     6    11    1
    17     6    19    1
    18     6    20    1
    19     7    12    1
    20     7    21    1
    21     7    22    1
    22     8    12    2
    23     8    15    1
    24     9    11    1
    25     9    23    1
    26     9    24    1
    27    10    25    1
    28    10    26    1
    29    10    27    1
    30    11    28    1
    31    11    29    1
    32    12    30    1
    33    13    33    1
    34    13    34    1
    35    13    35    1
    36    14    31    1
    37    14    32    1
    38    14    36    1
    39    15    37    1
    40    15    38    1
    41    15    39    1
