@<TRIPOS>MOLECULE
IMPHY016354
 27 27 0 0 0
SMALL
GASTEIGER

@<TRIPOS>ATOM
      1 O           2.0000    0.7500    0.0000 O.2     1  UNL1       -0.2968
      2 C           3.7320    0.7500    0.0000 C.3     1  UNL1        0.0379
      3 C           3.7320    1.7500    0.0000 C.3     1  UNL1       -0.0337
      4 C           3.7320   -1.2500    0.0000 C.3     1  UNL1       -0.0190
      5 C           2.8660   -0.7500    0.0000 C.3     1  UNL1        0.0124
      6 C           2.8660    0.2500    0.0000 C.2     1  UNL1        0.1409
      7 C           4.5981    0.2500    0.0000 C.2     1  UNL1       -0.0773
      8 C           4.5981   -0.7500    0.0000 C.2     1  UNL1       -0.0840
      9 C           4.5981    2.2500    0.0000 C.3     1  UNL1       -0.0617
     10 C           2.8660    2.2500    0.0000 C.3     1  UNL1       -0.0617
     11 C           3.7320   -2.2500    0.0000 C.3     1  UNL1       -0.0586
     12 H           4.2690    1.0600    0.0000 H       1  UNL1        0.0422
     13 H           3.7320    2.3700    0.0000 H       1  UNL1        0.0305
     14 H           4.2690   -1.5600    0.0000 H       1  UNL1        0.0344
     15 H           2.2554   -0.6423    0.0000 H       1  UNL1        0.0347
     16 H           2.6540   -1.3326    0.0000 H       1  UNL1        0.0347
     17 H           5.1350    0.5600    0.0000 H       1  UNL1        0.0576
     18 H           5.1350   -1.0600    0.0000 H       1  UNL1        0.0572
     19 H           4.9081    1.7131    0.0000 H       1  UNL1        0.0233
     20 H           5.1350    2.5600    0.0000 H       1  UNL1        0.0233
     21 H           4.2881    2.7869    0.0000 H       1  UNL1        0.0233
     22 H           3.1760    2.7869    0.0000 H       1  UNL1        0.0233
     23 H           2.3291    2.5600    0.0000 H       1  UNL1        0.0233
     24 H           2.5560    1.7131    0.0000 H       1  UNL1        0.0233
     25 H           3.1120   -2.2500    0.0000 H       1  UNL1        0.0235
     26 H           3.7320   -2.8700    0.0000 H       1  UNL1        0.0235
     27 H           4.3520   -2.2500    0.0000 H       1  UNL1        0.0235
@<TRIPOS>BOND
     1     1     6    2
     2     2     3    1
     3     2     6    1
     4     2     7    1
     5     2    12    1
     6     3     9    1
     7     3    10    1
     8     3    13    1
     9     4     5    1
    10     4     8    1
    11     4    11    1
    12     4    14    1
    13     5     6    1
    14     5    15    1
    15     5    16    1
    16     7     8    2
    17     7    17    1
    18     8    18    1
    19     9    19    1
    20     9    20    1
    21     9    21    1
    22    10    22    1
    23    10    23    1
    24    10    24    1
    25    11    25    1
    26    11    26    1
    27    11    27    1
