@<TRIPOS>MOLECULE
IMPHY000977
 51 55 0 0 0
SMALL
GASTEIGER

@<TRIPOS>ATOM
      1 O           5.3000    3.5447    0.0000 O.2     1  UNL1       -0.4704
      2 O           3.7863    2.6270    0.0000 O.3     1  UNL1       -0.3575
      3 O           8.3654    3.4872    0.0000 O.3     1  UNL1       -0.4646
      4 O           8.3454    1.7553    0.0000 O.2     1  UNL1       -0.2452
      5 O           2.6198   -3.3280    0.0000 O.3     1  UNL1       -0.5067
      6 O           8.0977   -3.1788    0.0000 O.3     1  UNL1       -0.4761
      7 OXT         9.1198   -1.7805    0.0000 O.2     1  UNL1       -0.2434
      8 N           4.9199   -0.0121    0.0000 N.ar    1  UNL1       -0.3351
      9 N           7.5101   -0.6109    0.0000 N.ar    1  UNL1       -0.2429
     10 C           5.3209    1.7447    0.0000 C.3     1  UNL1        0.0493
     11 C           6.3209    1.7447    0.0000 C.3     1  UNL1        0.0097
     12 C           4.6974    0.9628    0.0000 C.3     1  UNL1        0.0414
     13 C           6.9444    0.9628    0.0000 C.3     1  UNL1       -0.0007
     14 C           4.7862    2.6386    0.0000 C.3     1  UNL1        0.2037
     15 C           5.8209   -0.4460    0.0000 C.ar    1  UNL1        0.0720
     16 C           6.7218   -0.0121    0.0000 C.ar    1  UNL1        0.0668
     17 C           6.8555    2.6386    0.0000 C.2     1  UNL1        0.0747
     18 C           4.2348   -0.7324    0.0000 C.ar    1  UNL1        0.0506
     19 C           3.7224    1.1854    0.0000 C.3     1  UNL1       -0.0437
     20 C           5.6849   -1.4307    0.0000 C.ar    1  UNL1        0.0117
     21 C           4.7066   -1.6074    0.0000 C.ar    1  UNL1        0.0112
     22 C           6.3417    3.5447    0.0000 C.2     1  UNL1        0.0981
     23 C           6.4947   -2.0001    0.0000 C.ar    1  UNL1       -0.0195
     24 C           3.2003   -0.6863    0.0000 C.ar    1  UNL1       -0.0341
     25 C           7.8554    2.6270    0.0000 C.2     1  UNL1        0.3381
     26 C           4.1767   -2.4970    0.0000 C.ar    1  UNL1       -0.0104
     27 CA          7.3978   -1.5945    0.0000 C.ar    1  UNL1        0.1484
     28 C           2.6500   -1.5634    0.0000 C.ar    1  UNL1       -0.0182
     29 C           3.1415   -2.4748    0.0000 C.ar    1  UNL1        0.1176
     30 C           8.2051   -2.1846    0.0000 C.2     1  UNL1        0.3553
     31 C           9.3654    3.4757    0.0000 C.3     1  UNL1        0.0820
     32 H           4.4728    1.8017    0.0000 H       1  UNL1        0.0387
     33 H           7.1690    1.8017    0.0000 H       1  UNL1        0.0361
     34 H           4.2590    0.5244    0.0000 H       1  UNL1        0.0530
     35 H           7.5030    0.6938    0.0000 H       1  UNL1        0.0335
     36 H           7.3309    1.4476    0.0000 H       1  UNL1        0.0335
     37 H           4.4710    3.1725    0.0000 H       1  UNL1        0.1057
     38 H           3.8604    1.7898    0.0000 H       1  UNL1        0.0250
     39 H           3.1180    1.3233    0.0000 H       1  UNL1        0.0250
     40 H           3.5845    0.5809    0.0000 H       1  UNL1        0.0250
     41 H           6.6537    4.0804    0.0000 H       1  UNL1        0.1029
     42 H           6.4357   -2.6172    0.0000 H       1  UNL1        0.0648
     43 H           2.9124   -0.1373    0.0000 H       1  UNL1        0.0639
     44 H           3.4701    3.1604    0.0000 H       1  UNL1        0.2135
     45 H           4.4773   -3.0392    0.0000 H       1  UNL1        0.0661
     46 H           2.0303   -1.5430    0.0000 H       1  UNL1        0.0655
     47 H           2.0000   -3.3124    0.0000 H       1  UNL1        0.2921
     48 H           9.3582    2.8557    0.0000 H       1  UNL1        0.0661
     49 H           9.9853    3.4685    0.0000 H       1  UNL1        0.0661
     50 H           9.3725    4.0956    0.0000 H       1  UNL1        0.0661
     51 H           8.5982   -3.5447    0.0000 H       1  UNL1        0.2955
@<TRIPOS>BOND
     1     1    14    1
     2     1    22    1
     3    14     2    1
     4     2    44    1
     5     3    25    1
     6     3    31    1
     7     4    25    2
     8     5    29    1
     9     5    47    1
    10     6    30    1
    11     6    51    1
    12     7    30    2
    13     8    12    1
    14     8    15   ar
    15     8    18   ar
    16     9    16   ar
    17     9    27   ar
    18    10    11    1
    19    10    12    1
    20    10    14    1
    21    10    32    1
    22    11    13    1
    23    11    17    1
    24    11    33    1
    25    12    19    1
    26    12    34    1
    27    13    16    1
    28    13    35    1
    29    13    36    1
    30    14    37    1
    31    15    16   ar
    32    15    20   ar
    33    17    22    2
    34    17    25    1
    35    18    21   ar
    36    18    24   ar
    37    19    38    1
    38    19    39    1
    39    19    40    1
    40    20    21   ar
    41    20    23   ar
    42    21    26   ar
    43    22    41    1
    44    23    27   ar
    45    23    42    1
    46    24    28   ar
    47    24    43    1
    48    26    29   ar
    49    26    45    1
    50    27    30    1
    51    28    29   ar
    52    28    46    1
    53    31    48    1
    54    31    49    1
    55    31    50    1
