@<TRIPOS>MOLECULE
IMPHY011378
 71 76 0 0 0
SMALL
GASTEIGER

@<TRIPOS>ATOM
      1 O           7.1783   -0.5008    0.0000 O.2     1  UNL1       -0.2916
      2 O           5.4462   -3.5008    0.0000 O.3     1  UNL1       -0.5064
      3 O           2.6106    0.3465    0.0000 O.3     1  UNL1       -0.5064
      4 O           8.9905   -3.3056    0.0000 O.2     1  UNL1       -0.4547
      5 O           8.2819    0.3465    0.0000 O.3     1  UNL1       -0.5059
      6 O           3.2121    3.7579    0.0000 O.3     1  UNL1       -0.5066
      7 O           7.6803    3.7579    0.0000 O.3     1  UNL1       -0.5066
      8 O          12.5741   -4.2329    0.0000 O.3     1  UNL1       -0.5066
      9 O          12.5741   -0.7688    0.0000 O.3     1  UNL1       -0.5066
     10 C           5.4462   -0.5008    0.0000 C.3     1  UNL1        0.0398
     11 C           4.5802   -0.0008    0.0000 C.3     1  UNL1        0.0019
     12 C           5.4462   -1.5008    0.0000 C.3     1  UNL1        0.0163
     13 C           3.7142   -0.5008    0.0000 C.3     1  UNL1       -0.0244
     14 C           3.7142   -1.5008    0.0000 C.2     1  UNL1       -0.0753
     15 C           4.5802   -2.0008    0.0000 C.2     1  UNL1       -0.0768
     16 C           4.2382    0.9389    0.0000 C.ar    1  UNL1       -0.0016
     17 C           6.3122   -2.0008    0.0000 C.ar    1  UNL1        0.0023
     18 C           6.3122   -0.0008    0.0000 C.2     1  UNL1        0.1712
     19 C           2.8482   -2.0008    0.0000 C.3     1  UNL1       -0.0437
     20 C           7.1783   -1.5008    0.0000 C.ar    1  UNL1       -0.0437
     21 C           6.3122   -3.0008    0.0000 C.ar    1  UNL1        0.1241
     22 C           3.2534    1.1125    0.0000 C.ar    1  UNL1        0.1238
     23 C           6.6543    0.9389    0.0000 C.ar    1  UNL1        0.0593
     24 C           4.8810    1.7049    0.0000 C.ar    1  UNL1       -0.0514
     25 C           8.0443   -2.0008    0.0000 C.ar    1  UNL1        0.0213
     26 C           7.1783   -3.5008    0.0000 C.ar    1  UNL1        0.0230
     27 C           8.0443   -3.0008    0.0000 C.ar    1  UNL1        0.1392
     28 C           2.9114    2.0522    0.0000 C.ar    1  UNL1        0.0216
     29 C           4.5389    2.6446    0.0000 C.ar    1  UNL1       -0.0197
     30 C           7.6391    1.1125    0.0000 C.ar    1  UNL1        0.1308
     31 C           6.0115    1.7049    0.0000 C.ar    1  UNL1       -0.0443
     32 C           3.5541    2.8182    0.0000 C.ar    1  UNL1        0.1203
     33 C           8.9905   -1.6961    0.0000 C.ar    1  UNL1       -0.0081
     34 C           9.5741   -2.5008    0.0000 C.ar    1  UNL1        0.1365
     35 C           7.9811    2.0522    0.0000 C.ar    1  UNL1        0.0220
     36 C           6.3535    2.6446    0.0000 C.ar    1  UNL1       -0.0193
     37 C           7.3383    2.8182    0.0000 C.ar    1  UNL1        0.1204
     38 C          10.5741   -2.5008    0.0000 C.ar    1  UNL1        0.0242
     39 C          11.0741   -1.6348    0.0000 C.ar    1  UNL1       -0.0093
     40 C          11.0741   -3.3669    0.0000 C.ar    1  UNL1       -0.0093
     41 C          12.0741   -3.3669    0.0000 C.ar    1  UNL1        0.1210
     42 C          12.0741   -1.6348    0.0000 C.ar    1  UNL1        0.1210
     43 C          12.5741   -2.5008    0.0000 C.ar    1  UNL1        0.0213
     44 H           5.4462    0.1192    0.0000 H       1  UNL1        0.0396
     45 H           5.2313    0.5455    0.0000 H       1  UNL1        0.0360
     46 H           5.4462   -2.3508    0.0000 H       1  UNL1        0.0400
     47 H           3.5021    0.0818    0.0000 H       1  UNL1        0.0316
     48 H           3.1036   -0.6085    0.0000 H       1  UNL1        0.0316
     49 H           4.5802   -2.6208    0.0000 H       1  UNL1        0.0578
     50 H           2.5382   -1.4639    0.0000 H       1  UNL1        0.0274
     51 H           2.3112   -2.3108    0.0000 H       1  UNL1        0.0274
     52 H           3.1582   -2.5378    0.0000 H       1  UNL1        0.0274
     53 H           7.1783   -0.8808    0.0000 H       1  UNL1        0.0629
     54 H           5.4915    1.5972    0.0000 H       1  UNL1        0.0623
     55 H           7.1783   -4.1208    0.0000 H       1  UNL1        0.0691
     56 H           2.3008    2.1599    0.0000 H       1  UNL1        0.0691
     57 H           4.9375    3.1195    0.0000 H       1  UNL1        0.0654
     58 H           5.4009    1.5972    0.0000 H       1  UNL1        0.0627
     59 H           9.1831   -1.1068    0.0000 H       1  UNL1        0.0661
     60 H           5.4462   -4.1208    0.0000 H       1  UNL1        0.2921
     61 H           2.0000    0.4541    0.0000 H       1  UNL1        0.2921
     62 H           8.5917    2.1599    0.0000 H       1  UNL1        0.0691
     63 H           5.9550    3.1195    0.0000 H       1  UNL1        0.0654
     64 H           8.8924    0.4541    0.0000 H       1  UNL1        0.2922
     65 H           2.6015    3.8656    0.0000 H       1  UNL1        0.2921
     66 H          10.7641   -1.0979    0.0000 H       1  UNL1        0.0661
     67 H          10.7641   -3.9038    0.0000 H       1  UNL1        0.0661
     68 H           7.2818    4.2329    0.0000 H       1  UNL1        0.2921
     69 H          13.1941   -2.5008    0.0000 H       1  UNL1        0.0691
     70 H          13.1941   -4.2329    0.0000 H       1  UNL1        0.2921
     71 H          13.1941   -0.7688    0.0000 H       1  UNL1        0.2921
@<TRIPOS>BOND
     1     1    18    2
     2     2    21    1
     3     2    60    1
     4     3    22    1
     5     3    61    1
     6     4    27   ar
     7     4    34   ar
     8     5    30    1
     9     5    64    1
    10     6    32    1
    11     6    65    1
    12     7    37    1
    13     7    68    1
    14     8    41    1
    15     8    70    1
    16     9    42    1
    17     9    71    1
    18    10    11    1
    19    10    12    1
    20    10    18    1
    21    10    44    1
    22    11    13    1
    23    11    16    1
    24    11    45    1
    25    12    15    1
    26    12    17    1
    27    12    46    1
    28    13    14    1
    29    13    47    1
    30    13    48    1
    31    14    15    2
    32    14    19    1
    33    15    49    1
    34    16    22   ar
    35    16    24   ar
    36    17    20   ar
    37    17    21   ar
    38    18    23    1
    39    19    50    1
    40    19    51    1
    41    19    52    1
    42    20    25   ar
    43    20    53    1
    44    21    26   ar
    45    22    28   ar
    46    23    30   ar
    47    23    31   ar
    48    24    29   ar
    49    24    54    1
    50    25    27   ar
    51    25    33   ar
    52    26    27   ar
    53    26    55    1
    54    28    32   ar
    55    28    56    1
    56    29    32   ar
    57    29    57    1
    58    30    35   ar
    59    31    36   ar
    60    31    58    1
    61    33    34   ar
    62    33    59    1
    63    34    38    1
    64    35    37   ar
    65    35    62    1
    66    36    37   ar
    67    36    63    1
    68    38    39   ar
    69    38    40   ar
    70    39    42   ar
    71    39    66    1
    72    40    41   ar
    73    40    67    1
    74    41    43   ar
    75    42    43   ar
    76    43    69    1
