@<TRIPOS>MOLECULE
IMPHY002691
 21 22 0 0 0
SMALL
GASTEIGER

@<TRIPOS>ATOM
      1 N           5.4641   -0.2500    0.0000 N.ar    1  UNL1       -0.2550
      2 C           3.7320   -0.2500    0.0000 C.ar    1  UNL1        0.0003
      3 C           4.5981    0.2500    0.0000 C.ar    1  UNL1        0.0710
      4 C           2.8660    0.2500    0.0000 C.ar    1  UNL1       -0.0526
      5 C           3.7320   -1.2500    0.0000 C.ar    1  UNL1       -0.0526
      6 C           4.5981    1.2500    0.0000 C.ar    1  UNL1       -0.0357
      7 C           2.0000   -0.2500    0.0000 C.ar    1  UNL1       -0.0611
      8 C           2.8660   -1.7500    0.0000 C.ar    1  UNL1       -0.0611
      9 C           2.0000   -1.2500    0.0000 C.ar    1  UNL1       -0.0617
     10 C           5.4641    1.7500    0.0000 C.ar    1  UNL1       -0.0583
     11 C           6.3301    1.2500    0.0000 C.ar    1  UNL1       -0.0436
     12 C           6.3301    0.2500    0.0000 C.ar    1  UNL1        0.0283
     13 H           2.8660    0.8700    0.0000 H       1  UNL1        0.0624
     14 H           4.2690   -1.5600    0.0000 H       1  UNL1        0.0624
     15 H           4.0611    1.5600    0.0000 H       1  UNL1        0.0639
     16 H           1.4631    0.0600    0.0000 H       1  UNL1        0.0618
     17 H           2.8660   -2.3700    0.0000 H       1  UNL1        0.0618
     18 H           1.4631   -1.5600    0.0000 H       1  UNL1        0.0618
     19 H           5.4641    2.3700    0.0000 H       1  UNL1        0.0619
     20 H           6.8671    1.5600    0.0000 H       1  UNL1        0.0633
     21 H           6.8671   -0.0600    0.0000 H       1  UNL1        0.0830
@<TRIPOS>BOND
     1     1     3   ar
     2     1    12   ar
     3     2     3    1
     4     2     4   ar
     5     2     5   ar
     6     3     6   ar
     7     4     7   ar
     8     4    13    1
     9     5     8   ar
    10     5    14    1
    11     6    10   ar
    12     6    15    1
    13     7     9   ar
    14     7    16    1
    15     8     9   ar
    16     8    17    1
    17     9    18    1
    18    10    11   ar
    19    10    19    1
    20    11    12   ar
    21    11    20    1
    22    12    21    1
