@<TRIPOS>MOLECULE
IMPHY007901
 45 47 0 0 0
SMALL
GASTEIGER

@<TRIPOS>ATOM
      1 O           7.1962    1.7500    0.0000 O.3     1  UNL1       -0.3747
      2 O          10.7404    0.5547    0.0000 O.3     1  UNL1       -0.4526
      3 O          10.7404   -1.0547    0.0000 O.3     1  UNL1       -0.4526
      4 O           5.4641    1.7500    0.0000 O.2     1  UNL1       -0.2918
      5 O           3.7320    1.7500    0.0000 O.3     1  UNL1       -0.4943
      6 O           2.0000   -1.2500    0.0000 O.3     1  UNL1       -0.4950
      7 C           7.1962    0.7500    0.0000 C.3     1  UNL1        0.0904
      8 C           6.3301    0.2500    0.0000 C.3     1  UNL1        0.0410
      9 C           8.0622    0.2500    0.0000 C.ar    1  UNL1       -0.0148
     10 C           8.9282    0.7500    0.0000 C.ar    1  UNL1       -0.0105
     11 C           5.4641    0.7500    0.0000 C.2     1  UNL1        0.1694
     12 C           8.0622   -0.7500    0.0000 C.ar    1  UNL1       -0.0524
     13 C           9.7942    0.2500    0.0000 C.ar    1  UNL1        0.1666
     14 C           9.7942   -0.7500    0.0000 C.ar    1  UNL1        0.1662
     15 C           4.5981    0.2500    0.0000 C.ar    1  UNL1        0.0593
     16 C           8.9282   -1.2500    0.0000 C.ar    1  UNL1       -0.0158
     17 C           3.7320    0.7500    0.0000 C.ar    1  UNL1        0.1340
     18 C          11.3241   -0.2500    0.0000 C.3     1  UNL1        0.2332
     19 C           4.5981   -0.7500    0.0000 C.ar    1  UNL1       -0.0443
     20 C           6.3301    2.2500    0.0000 C.3     1  UNL1        0.0372
     21 C           2.8660    0.2500    0.0000 C.ar    1  UNL1        0.0224
     22 C           3.7320   -1.2500    0.0000 C.ar    1  UNL1       -0.0191
     23 C           2.8660   -0.7500    0.0000 C.ar    1  UNL1        0.1236
     24 C           2.8660    2.2500    0.0000 C.3     1  UNL1        0.0788
     25 C           2.0000   -2.2500    0.0000 C.3     1  UNL1        0.0788
     26 H           6.6592    1.0600    0.0000 H       1  UNL1        0.0650
     27 H           5.9316   -0.2249    0.0000 H       1  UNL1        0.0374
     28 H           6.7287   -0.2249    0.0000 H       1  UNL1        0.0374
     29 H           8.9282    1.3700    0.0000 H       1  UNL1        0.0659
     30 H           7.5252   -1.0600    0.0000 H       1  UNL1        0.0622
     31 H           8.9282   -1.8700    0.0000 H       1  UNL1        0.0655
     32 H          11.7849   -0.6647    0.0000 H       1  UNL1        0.1166
     33 H          11.7849    0.1647    0.0000 H       1  UNL1        0.1166
     34 H           5.1350   -1.0600    0.0000 H       1  UNL1        0.0627
     35 H           6.6401    2.7869    0.0000 H       1  UNL1        0.0524
     36 H           5.7932    2.5600    0.0000 H       1  UNL1        0.0524
     37 H           6.0201    1.7131    0.0000 H       1  UNL1        0.0524
     38 H           2.3291    0.5600    0.0000 H       1  UNL1        0.0691
     39 H           3.7320   -1.8700    0.0000 H       1  UNL1        0.0654
     40 H           3.1760    2.7869    0.0000 H       1  UNL1        0.0660
     41 H           2.3291    2.5600    0.0000 H       1  UNL1        0.0660
     42 H           2.5560    1.7131    0.0000 H       1  UNL1        0.0660
     43 H           1.3800   -2.2500    0.0000 H       1  UNL1        0.0660
     44 H           2.0000   -2.8700    0.0000 H       1  UNL1        0.0660
     45 H           2.6200   -2.2500    0.0000 H       1  UNL1        0.0660
@<TRIPOS>BOND
     1     1     7    1
     2     1    20    1
     3     2    13    1
     4     2    18    1
     5     3    14    1
     6     3    18    1
     7     4    11    2
     8     5    17    1
     9     5    24    1
    10     6    23    1
    11     6    25    1
    12     7     8    1
    13     7     9    1
    14     7    26    1
    15     8    11    1
    16     8    27    1
    17     8    28    1
    18     9    10   ar
    19     9    12   ar
    20    10    13   ar
    21    10    29    1
    22    11    15    1
    23    12    16   ar
    24    12    30    1
    25    13    14   ar
    26    14    16   ar
    27    15    17   ar
    28    15    19   ar
    29    16    31    1
    30    17    21   ar
    31    18    32    1
    32    18    33    1
    33    19    22   ar
    34    19    34    1
    35    20    35    1
    36    20    36    1
    37    20    37    1
    38    21    23   ar
    39    21    38    1
    40    22    23   ar
    41    22    39    1
    42    24    40    1
    43    24    41    1
    44    24    42    1
    45    25    43    1
    46    25    44    1
    47    25    45    1
