@<TRIPOS>MOLECULE
IMPHY012171
 29 30 0 0 0
SMALL
GASTEIGER

@<TRIPOS>ATOM
      1 C           4.6260   -1.0174    0.0000 C.3     1  UNL1       -0.0144
      2 C           3.7320   -0.4827    0.0000 C.ar    1  UNL1       -0.0340
      3 C           5.5321   -0.5035    0.0000 C.3     1  UNL1       -0.0278
      4 C           3.7320    0.5173    0.0000 C.ar    1  UNL1       -0.0187
      5 C           2.8660   -0.9827    0.0000 C.ar    1  UNL1       -0.0464
      6 C           4.6144   -2.0173    0.0000 C.3     1  UNL1       -0.0581
      7 C           5.5321    0.5381    0.0000 C.2     1  UNL1       -0.0829
      8 C           2.8660    1.0173    0.0000 C.ar    1  UNL1       -0.0430
      9 C           4.6260    1.0520    0.0000 C.2     1  UNL1       -0.0580
     10 C           2.0000   -0.4827    0.0000 C.ar    1  UNL1       -0.0583
     11 C           2.0000    0.5173    0.0000 C.ar    1  UNL1       -0.0580
     12 C           2.8660   -1.9827    0.0000 C.3     1  UNL1       -0.0394
     13 C           2.8660    2.0173    0.0000 C.3     1  UNL1       -0.0391
     14 H           4.0849   -1.3201    0.0000 H       1  UNL1        0.0349
     15 H           5.7411   -1.0872    0.0000 H       1  UNL1        0.0313
     16 H           6.1429   -0.3974    0.0000 H       1  UNL1        0.0313
     17 H           3.9945   -2.0101    0.0000 H       1  UNL1        0.0236
     18 H           4.6073   -2.6373    0.0000 H       1  UNL1        0.0236
     19 H           5.2344   -2.0245    0.0000 H       1  UNL1        0.0236
     20 H           6.0678    0.8502    0.0000 H       1  UNL1        0.0572
     21 H           4.6188    1.6719    0.0000 H       1  UNL1        0.0621
     22 H           1.4631   -0.7927    0.0000 H       1  UNL1        0.0620
     23 H           1.4631    0.8273    0.0000 H       1  UNL1        0.0620
     24 H           2.2460   -1.9827    0.0000 H       1  UNL1        0.0278
     25 H           2.8660   -2.6027    0.0000 H       1  UNL1        0.0278
     26 H           3.4860   -1.9827    0.0000 H       1  UNL1        0.0278
     27 H           3.4860    2.0173    0.0000 H       1  UNL1        0.0278
     28 H           2.8660    2.6373    0.0000 H       1  UNL1        0.0278
     29 H           2.2460    2.0173    0.0000 H       1  UNL1        0.0278
@<TRIPOS>BOND
     1     1     2    1
     2     1     3    1
     3     1     6    1
     4     1    14    1
     5     2     4   ar
     6     2     5   ar
     7     3     7    1
     8     3    15    1
     9     3    16    1
    10     4     8   ar
    11     4     9    1
    12     5    10   ar
    13     5    12    1
    14     6    17    1
    15     6    18    1
    16     6    19    1
    17     7     9    2
    18     7    20    1
    19     8    11   ar
    20     8    13    1
    21     9    21    1
    22    10    11   ar
    23    10    22    1
    24    11    23    1
    25    12    24    1
    26    12    25    1
    27    12    26    1
    28    13    27    1
    29    13    28    1
    30    13    29    1
