@<TRIPOS>MOLECULE
IMPHY008484
 33 35 0 0 0
SMALL
GASTEIGER

@<TRIPOS>ATOM
      1 O           6.0290   -2.7100    0.0000 O.2     1  UNL1       -0.4220
      2 O           2.5369   -2.6753    0.0000 O.3     1  UNL1       -0.4913
      3 O           2.5369   -0.6753    0.0000 O.3     1  UNL1       -0.5033
      4 O           7.7991   -2.6994    0.0000 O.2     1  UNL1       -0.2452
      5 O           5.9827    3.3591    0.0000 O.3     1  UNL1       -0.5068
      6 C           5.1350   -1.1753    0.0000 C.ar    1  UNL1        0.0290
      7 C           6.0290   -0.6406    0.0000 C.ar    1  UNL1       -0.0003
      8 C           5.1350   -2.1753    0.0000 C.ar    1  UNL1        0.1433
      9 C           6.0174    0.3593    0.0000 C.ar    1  UNL1       -0.0168
     10 C           4.2690   -0.6753    0.0000 C.ar    1  UNL1       -0.0053
     11 C           6.9350   -1.1545    0.0000 C.ar    1  UNL1        0.0313
     12 C           4.2690   -2.6753    0.0000 C.ar    1  UNL1        0.0267
     13 C           3.4030   -1.1753    0.0000 C.ar    1  UNL1        0.1593
     14 C           3.4030   -2.1753    0.0000 C.ar    1  UNL1        0.1648
     15 C           5.1456    0.8493    0.0000 C.ar    1  UNL1       -0.0506
     16 C           6.8776    0.8693    0.0000 C.ar    1  UNL1       -0.0506
     17 C           6.9350   -2.1961    0.0000 C.ar    1  UNL1        0.3378
     18 C           5.1341    1.8492    0.0000 C.ar    1  UNL1       -0.0196
     19 C           6.8660    1.8692    0.0000 C.ar    1  UNL1       -0.0196
     20 C           5.9943    2.3592    0.0000 C.ar    1  UNL1        0.1169
     21 C           2.5369   -3.6753    0.0000 C.3     1  UNL1        0.0790
     22 H           4.2690   -0.0553    0.0000 H       1  UNL1        0.0662
     23 H           7.4708   -0.8424    0.0000 H       1  UNL1        0.0695
     24 H           4.2690   -3.2953    0.0000 H       1  UNL1        0.0692
     25 H           4.6123    0.5331    0.0000 H       1  UNL1        0.0625
     26 H           7.4181    0.5655    0.0000 H       1  UNL1        0.0625
     27 H           4.5936    2.1530    0.0000 H       1  UNL1        0.0654
     28 H           7.3993    2.1854    0.0000 H       1  UNL1        0.0654
     29 H           2.0000   -0.9853    0.0000 H       1  UNL1        0.2923
     30 H           1.9169   -3.6753    0.0000 H       1  UNL1        0.0660
     31 H           2.5369   -4.2953    0.0000 H       1  UNL1        0.0660
     32 H           3.1569   -3.6753    0.0000 H       1  UNL1        0.0660
     33 H           6.5160    3.6753    0.0000 H       1  UNL1        0.2921
@<TRIPOS>BOND
     1     1     8   ar
     2     1    17   ar
     3     2    14    1
     4     2    21    1
     5     3    13    1
     6     3    29    1
     7     4    17    2
     8     5    20    1
     9     5    33    1
    10     6     7   ar
    11     6     8   ar
    12     6    10   ar
    13     7     9    1
    14     7    11   ar
    15     8    12   ar
    16     9    15   ar
    17     9    16   ar
    18    10    13   ar
    19    10    22    1
    20    11    17   ar
    21    11    23    1
    22    12    14   ar
    23    12    24    1
    24    13    14   ar
    25    15    18   ar
    26    15    25    1
    27    16    19   ar
    28    16    26    1
    29    18    20   ar
    30    18    27    1
    31    19    20   ar
    32    19    28    1
    33    21    30    1
    34    21    31    1
    35    21    32    1
