@<TRIPOS>MOLECULE
IMPHY010697
 46 52 0 0 0
SMALL
GASTEIGER

@<TRIPOS>ATOM
      1 C           0.0000   -7.1901    0.0000 C.3     1  UNL1        0.0260
      2 C           2.1585   -7.9653    0.0000 C.3     1  UNL1        0.0260
      3 C           4.3779   -2.7362    0.0000 C.3     1  UNL1        0.0483
      4 C          15.2010   -1.9913    0.0000 C.ar    1  UNL1        0.0036
      5 C          14.0458   -1.3377    0.0000 C.ar    1  UNL1        0.0065
      6 C          15.2010   -3.3290    0.0000 C.ar    1  UNL1        0.0452
      7 C           3.4658   -7.7373    0.0000 C.ar    1  UNL1       -0.0007
      8 C           4.3323   -8.7558    0.0000 C.ar    1  UNL1        0.0061
      9 C           9.9719  -10.1087    0.0000 C.ar    1  UNL1        0.0456
     10 C          10.4279   -8.8470    0.0000 C.ar    1  UNL1        0.0485
     11 C           7.1445   -3.9979    0.0000 C.2     1  UNL1        0.0022
     12 C           5.9892   -3.3290    0.0000 C.2     1  UNL1        0.0129
     13 C           1.7633   -5.7004    0.0000 C.2     1  UNL1       -0.0303
     14 C           8.2998   -1.9913    0.0000 C.ar    1  UNL1        0.0455
     15 C           3.5266   -4.2259    0.0000 C.3     1  UNL1        0.0531
     16 C           1.3073   -6.9469    0.0000 C.2     1  UNL1       -0.0475
     17 C           8.2998   -3.3290    0.0000 C.ar    1  UNL1        0.0450
     18 C           3.0706   -5.4724    0.0000 C.3     1  UNL1        0.0505
     19 C           3.9219   -6.4908    0.0000 C.ar    1  UNL1        0.0187
     20 C          12.8905   -1.9913    0.0000 C.ar    1  UNL1        0.0769
     21 C           5.6396   -8.5278    0.0000 C.ar    1  UNL1        0.0767
     22 C           8.6494  -10.3367    0.0000 C.ar    1  UNL1        0.2019
     23 C          14.0458   -3.9979    0.0000 C.ar    1  UNL1        0.2300
     24 C           9.5615   -7.8285    0.0000 C.ar    1  UNL1        0.2302
     25 C           9.4398   -1.3377    0.0000 C.ar    1  UNL1        0.2019
     26 C           7.7981   -9.3182    0.0000 C.ar    1  UNL1        0.1156
     27 C          10.5951   -1.9913    0.0000 C.ar    1  UNL1        0.1156
     28 C           9.4398   -3.9979    0.0000 C.ar    1  UNL1        0.2301
     29 C          11.7504   -1.3377    0.0000 C.ar    1  UNL1        0.2048
     30 C           6.4908   -9.5463    0.0000 C.ar    1  UNL1        0.2048
     31 C          12.8905   -3.3290    0.0000 C.ar    1  UNL1        0.1871
     32 C           6.0956   -7.2813    0.0000 C.ar    1  UNL1        0.1818
     33 C           5.2444   -6.2628    0.0000 C.ar    1  UNL1        0.1693
     34 C           8.2542   -8.0718    0.0000 C.ar    1  UNL1        0.1902
     35 C          10.5951   -3.3290    0.0000 C.ar    1  UNL1        0.1902
     36 C           4.8339   -3.9979    0.0000 C.3     1  UNL1        0.1524
     37 O           8.2086  -11.5832    0.0000 O.3     1  UNL1       -0.2864
     38 O          14.0458   -5.3204    0.0000 O.3     1  UNL1       -0.2833
     39 O          10.0175   -6.5821    0.0000 O.3     1  UNL1       -0.2833
     40 O           9.4398    0.0000    0.0000 O.3     1  UNL1       -0.2864
     41 O           9.4398   -5.3204    0.0000 O.3     1  UNL1       -0.2833
     42 O          11.7504    0.0000    0.0000 O.2     1  UNL1       -0.2862
     43 O           6.0348  -10.7927    0.0000 O.2     1  UNL1       -0.2862
     44 O          11.7504   -3.9979    0.0000 O.2     1  UNL1       -0.4467
     45 O           7.4029   -7.0533    0.0000 O.2     1  UNL1       -0.4469
     46 O           5.6852   -5.0163    0.0000 O.3     1  UNL1       -0.4758
@<TRIPOS>BOND
     1     1    16    1
     2     2    16    1
     3     3    36    1
     4     4     5   ar
     5     4     6   ar
     6     5    20   ar
     7     6    23   ar
     8     7     8   ar
     9     7    19   ar
    10     8    21   ar
    11     9    10   ar
    12     9    22   ar
    13    10    24   ar
    14    11    12    2
    15    11    17    1
    16    12    36    1
    17    13    16    2
    18    13    18    1
    19    14    17   ar
    20    14    25   ar
    21    15    18    1
    22    15    36    1
    23    17    28   ar
    24    18    19    1
    25    19    33   ar
    26    20    29   ar
    27    20    31   ar
    28    21    30   ar
    29    21    32   ar
    30    22    26   ar
    31    22    37    1
    32    23    31   ar
    33    23    38    1
    34    24    34   ar
    35    24    39    1
    36    25    27   ar
    37    25    40    1
    38    26    30   ar
    39    26    34   ar
    40    27    29   ar
    41    27    35   ar
    42    28    35   ar
    43    28    41    1
    44    29    42    2
    45    30    43    2
    46    31    44   ar
    47    32    33   ar
    48    32    45   ar
    49    33    46    1
    50    34    45   ar
    51    35    44   ar
    52    36    46    1
