@<TRIPOS>MOLECULE
IMPHY004107
 27 28 0 0 0
SMALL
GASTEIGER

@<TRIPOS>ATOM
      1 S           7.2566    1.7809    0.0000 S.3     1  UNL1       -0.1062
      2 S           5.6103    2.3190    0.0000 S.2     1  UNL1       -0.0282
      3 N           4.6783   -2.1421    0.0000 N.ar    1  UNL1       -0.3603
      4 N           5.9674    0.6241    0.0000 N.am    1  UNL1       -0.3288
      5 C           4.6783   -0.5326    0.0000 C.ar    1  UNL1       -0.0054
      6 C           3.7320   -0.8373    0.0000 C.ar    1  UNL1        0.0043
      7 C           3.7320   -1.8373    0.0000 C.ar    1  UNL1        0.0468
      8 C           4.9889    0.4179    0.0000 C.3     1  UNL1        0.0372
      9 C           5.2619   -1.3373    0.0000 C.ar    1  UNL1        0.0074
     10 C           2.8660   -0.3373    0.0000 C.ar    1  UNL1       -0.0523
     11 C           2.8660   -2.3373    0.0000 C.ar    1  UNL1       -0.0378
     12 C           2.0000   -0.8373    0.0000 C.ar    1  UNL1       -0.0611
     13 C           2.0000   -1.8373    0.0000 C.ar    1  UNL1       -0.0598
     14 C           6.2781    1.5747    0.0000 C.2     1  UNL1        0.1066
     15 C           7.5673    2.7314    0.0000 C.3     1  UNL1       -0.0118
     16 H           4.9684    1.0376    0.0000 H       1  UNL1        0.0512
     17 H           4.3751    0.5053    0.0000 H       1  UNL1        0.0512
     18 H           5.8819   -1.3373    0.0000 H       1  UNL1        0.0810
     19 H           4.8709   -2.7314    0.0000 H       1  UNL1        0.1653
     20 H           2.8660    0.2827    0.0000 H       1  UNL1        0.0624
     21 H           2.8660   -2.9573    0.0000 H       1  UNL1        0.0638
     22 H           1.4631   -0.5273    0.0000 H       1  UNL1        0.0618
     23 H           6.3815    0.1627    0.0000 H       1  UNL1        0.1474
     24 H           1.4631   -2.1473    0.0000 H       1  UNL1        0.0618
     25 H           8.1566    2.5388    0.0000 H       1  UNL1        0.0344
     26 H           7.7599    3.3207    0.0000 H       1  UNL1        0.0344
     27 H           6.9780    2.9240    0.0000 H       1  UNL1        0.0344
@<TRIPOS>BOND
     1     1    14    1
     2     1    15    1
     3     2    14    2
     4     3     7   ar
     5     3     9   ar
     6     3    19    1
     7     4     8    1
     8     4    14    1
     9     4    23    1
    10     5     6   ar
    11     5     8    1
    12     5     9   ar
    13     6     7   ar
    14     6    10   ar
    15     7    11   ar
    16     8    16    1
    17     8    17    1
    18     9    18    1
    19    10    12   ar
    20    10    20    1
    21    11    13   ar
    22    11    21    1
    23    12    13   ar
    24    12    22    1
    25    13    24    1
    26    15    25    1
    27    15    26    1
    28    15    27    1
