@<TRIPOS>MOLECULE
IMPHY002204
 37 41 0 0 0
SMALL
GASTEIGER

@<TRIPOS>ATOM
      1 O           6.2719   -0.7339    0.0000 O.3     1  UNL1       -0.4803
      2 O           6.4811    2.2379    0.0000 O.3     1  UNL1       -0.4881
      3 O           4.7490    1.2379    0.0000 O.3     1  UNL1       -0.3765
      4 O           2.2123   -0.7507    0.0000 O.3     1  UNL1       -0.4526
      5 O           2.8914   -2.2725    0.0000 O.3     1  UNL1       -0.4525
      6 O          10.0112    2.2620    0.0000 O.3     1  UNL1       -0.4950
      7 C           5.6151    0.7379    0.0000 C.3     1  UNL1        0.1690
      8 C           6.4811    0.2379    0.0000 C.3     1  UNL1        0.1645
      9 C           4.8780    0.0708    0.0000 C.ar    1  UNL1        0.0364
     10 C           5.6151    1.7379    0.0000 C.3     1  UNL1        0.1263
     11 C           7.3471    0.7379    0.0000 C.ar    1  UNL1        0.0378
     12 C           5.2832   -0.8370    0.0000 C.ar    1  UNL1        0.1314
     13 C           7.3471    1.7379    0.0000 C.ar    1  UNL1        0.1309
     14 C           3.8499    0.1940    0.0000 C.ar    1  UNL1       -0.0065
     15 C           4.6882   -1.6845    0.0000 C.ar    1  UNL1        0.0260
     16 C           8.2410    0.2032    0.0000 C.ar    1  UNL1       -0.0480
     17 C           3.2356   -0.6395    0.0000 C.ar    1  UNL1        0.1668
     18 C           3.6576   -1.5851    0.0000 C.ar    1  UNL1        0.1697
     19 C           8.2410    2.2725    0.0000 C.ar    1  UNL1        0.0222
     20 C           9.1471    0.7171    0.0000 C.ar    1  UNL1       -0.0193
     21 C           9.1471    1.7587    0.0000 C.ar    1  UNL1        0.1236
     22 C           2.0000   -1.7579    0.0000 C.3     1  UNL1        0.2332
     23 C          10.8792    1.7654    0.0000 C.3     1  UNL1        0.0788
     24 H           7.1681   -0.2626    0.0000 H       1  UNL1        0.0820
     25 H           5.4030    2.3205    0.0000 H       1  UNL1        0.0730
     26 H           5.0045    1.6302    0.0000 H       1  UNL1        0.0730
     27 H           3.6038    0.7631    0.0000 H       1  UNL1        0.0660
     28 H           4.7490    1.8579    0.0000 H       1  UNL1        0.2109
     29 H           4.9474   -2.2477    0.0000 H       1  UNL1        0.0692
     30 H           8.2339   -0.4167    0.0000 H       1  UNL1        0.0624
     31 H           8.2339    2.8925    0.0000 H       1  UNL1        0.0691
     32 H           9.6828    0.4050    0.0000 H       1  UNL1        0.0654
     33 H           1.4101   -1.5670    0.0000 H       1  UNL1        0.1166
     34 H           1.7482   -2.3244    0.0000 H       1  UNL1        0.1166
     35 H          10.5712    1.2272    0.0000 H       1  UNL1        0.0660
     36 H          11.4173    1.4574    0.0000 H       1  UNL1        0.0660
     37 H          11.1871    2.3035    0.0000 H       1  UNL1        0.0660
@<TRIPOS>BOND
     1     1     8    1
     2     1    12    1
     3     2    10    1
     4     2    13    1
     5     7     3    1
     6     3    28    1
     7     4    17    1
     8     4    22    1
     9     5    18    1
    10     5    22    1
    11     6    21    1
    12     6    23    1
    13     7     8    1
    14     7     9    1
    15     7    10    1
    16     8    11    1
    17     8    24    1
    18     9    12   ar
    19     9    14   ar
    20    10    25    1
    21    10    26    1
    22    11    13   ar
    23    11    16   ar
    24    12    15   ar
    25    13    19   ar
    26    14    17   ar
    27    14    27    1
    28    15    18   ar
    29    15    29    1
    30    16    20   ar
    31    16    30    1
    32    17    18   ar
    33    19    21   ar
    34    19    31    1
    35    20    21   ar
    36    20    32    1
    37    22    33    1
    38    22    34    1
    39    23    35    1
    40    23    36    1
    41    23    37    1
