@<TRIPOS>MOLECULE
IMPHY008992
 12 12 0 0 0
SMALL
GASTEIGER

@<TRIPOS>ATOM
      1 O           3.7321    2.5000    0.0000 O.co2   1  UNL1       -0.5760
      2 O           2.0000    2.5000    0.0000 O.2     1  UNL1        0.0415
      3 O           2.0000   -2.5000    0.0000 O.co2   1  UNL1       -0.5446
      4 O           3.7321   -2.5000    0.0000 O.co2   1  UNL1       -0.5446
      5 N           2.8660    2.0000    0.0000 N.pl3   1  UNL1        0.0809
      6 C           2.8660    1.0000    0.0000 C.ar    1  UNL1        0.2901
      7 C           2.8660   -1.0000    0.0000 C.ar    1  UNL1        0.0144
      8 C           2.0000    0.5000    0.0000 C.ar    1  UNL1        0.0753
      9 C           3.7321    0.5000    0.0000 C.ar    1  UNL1        0.0753
     10 C           2.0000   -0.5000    0.0000 C.ar    1  UNL1        0.0074
     11 C           3.7321   -0.5000    0.0000 C.ar    1  UNL1        0.0074
     12 C           2.8660   -2.0000    0.0000 C.2     1  UNL1        0.0729
@<TRIPOS>UNITY_ATOM_ATTR
1 1
charge -1
3 1
charge -1
5 1
charge 1
@<TRIPOS>BOND
     1     1     5    1
     2     2     5    2
     3     3    12   ar
     4     4    12   ar
     5     5     6    1
     6     6     8   ar
     7     6     9   ar
     8     7    10   ar
     9     7    11   ar
    10     7    12    1
    11     8    10   ar
    12     9    11   ar
