@<TRIPOS>MOLECULE
IMPHY012240
 28 28 0 0 0
SMALL
GASTEIGER

@<TRIPOS>ATOM
      1 O           3.4810   -1.7793    0.0000 O.3     1  UNL1       -0.3947
      2 C           3.7071   -0.0621    0.0000 C.3     1  UNL1       -0.0178
      3 C           2.7071   -0.0621    0.0000 C.3     1  UNL1       -0.0481
      4 C           4.4142    0.6450    0.0000 C.3     1  UNL1       -0.0481
      5 C           2.0000    0.6450    0.0000 C.3     1  UNL1       -0.0527
      6 C           4.4142    1.6450    0.0000 C.3     1  UNL1       -0.0527
      7 C           2.0000    1.6450    0.0000 C.3     1  UNL1       -0.0530
      8 C           3.7071    2.3521    0.0000 C.3     1  UNL1       -0.0530
      9 C           2.7071    2.3521    0.0000 C.3     1  UNL1       -0.0531
     10 C           4.0898   -0.9860    0.0000 C.3     1  UNL1        0.0470
     11 H           3.3626   -0.5776    0.0000 H       1  UNL1        0.0323
     12 H           2.1702   -0.3721    0.0000 H       1  UNL1        0.0269
     13 H           2.8676   -0.6610    0.0000 H       1  UNL1        0.0269
     14 H           4.7242    0.1081    0.0000 H       1  UNL1        0.0269
     15 H           5.0131    0.8055    0.0000 H       1  UNL1        0.0269
     16 H           1.4011    0.8055    0.0000 H       1  UNL1        0.0265
     17 H           1.6900    0.1081    0.0000 H       1  UNL1        0.0265
     18 H           5.0131    1.4846    0.0000 H       1  UNL1        0.0265
     19 H           4.7242    2.1820    0.0000 H       1  UNL1        0.0265
     20 H           1.6900    2.1820    0.0000 H       1  UNL1        0.0265
     21 H           1.4011    1.4846    0.0000 H       1  UNL1        0.0265
     22 H           4.2440    2.6621    0.0000 H       1  UNL1        0.0265
     23 H           3.5466    2.9510    0.0000 H       1  UNL1        0.0265
     24 H           2.8676    2.9510    0.0000 H       1  UNL1        0.0265
     25 H           2.1702    2.6621    0.0000 H       1  UNL1        0.0265
     26 H           4.5087   -1.4431    0.0000 H       1  UNL1        0.0560
     27 H           4.6127   -0.6528    0.0000 H       1  UNL1        0.0560
     28 H           3.7183   -2.3521    0.0000 H       1  UNL1        0.2094
@<TRIPOS>BOND
     1     1    10    1
     2     1    28    1
     3     2     3    1
     4     2     4    1
     5     2    10    1
     6     2    11    1
     7     3     5    1
     8     3    12    1
     9     3    13    1
    10     4     6    1
    11     4    14    1
    12     4    15    1
    13     5     7    1
    14     5    16    1
    15     5    17    1
    16     6     8    1
    17     6    18    1
    18     6    19    1
    19     7     9    1
    20     7    20    1
    21     7    21    1
    22     8     9    1
    23     8    22    1
    24     8    23    1
    25     9    24    1
    26     9    25    1
    27    10    26    1
    28    10    27    1
