@<TRIPOS>MOLECULE
IMPHY001397
 43 45 0 0 0
SMALL
GASTEIGER

@<TRIPOS>ATOM
      1 O           3.1537    0.2881    0.0000 O.3     1  UNL1       -0.3847
      2 O           2.3784   -0.7336    0.0000 O.3     1  UNL1       -0.3889
      3 O           5.4557    1.6110    0.0000 O.3     1  UNL1       -0.4639
      4 O           3.7639    1.7167    0.0000 O.3     1  UNL1       -0.3806
      5 O           5.8255    1.2664    0.0000 O.2     1  UNL1       -0.2943
      6 O           7.0541    1.0517    0.0000 O.2     1  UNL1       -0.2508
      7 C           4.9557   -0.5797    0.0000 C.3     1  UNL1        0.0221
      8 C           4.0547   -0.1458    0.0000 C.3     1  UNL1        0.1099
      9 C           3.8322    0.8291    0.0000 C.3     1  UNL1        0.0690
     10 C           4.8197   -1.5644    0.0000 C.3     1  UNL1       -0.0322
     11 C           3.3696   -0.8661    0.0000 C.3     1  UNL1        0.0854
     12 C           3.8414   -1.7411    0.0000 C.3     1  UNL1       -0.0209
     13 C           5.0796   -0.1563    0.0000 C.3     1  UNL1        0.0179
     14 C           4.2725    0.8557    0.0000 C.3     1  UNL1        0.1319
     15 C           5.8566   -0.1458    0.0000 C.3     1  UNL1        0.0539
     16 C           4.4557    1.6110    0.0000 C.3     1  UNL1        0.1036
     17 C           5.0437    0.6429    0.0000 C.2     1  UNL1        0.1657
     18 C           2.9789    1.3506    0.0000 C.3     1  UNL1       -0.0506
     19 C           5.5413   -2.2567    0.0000 C.3     1  UNL1       -0.0617
     20 C           5.0029    1.7440    0.0000 C.3     1  UNL1       -0.0284
     21 C           6.0792    0.8291    0.0000 C.2     1  UNL1        0.3077
     22 H           4.6406   -2.1580    0.0000 H       1  UNL1        0.0305
     23 H           3.0172   -1.3762    0.0000 H       1  UNL1        0.0622
     24 H           3.2678   -1.9764    0.0000 H       1  UNL1        0.0294
     25 H           4.0151   -2.3362    0.0000 H       1  UNL1        0.0294
     26 H           5.5544   -0.5550    0.0000 H       1  UNL1        0.0349
     27 H           4.4640   -0.0821    0.0000 H       1  UNL1        0.0349
     28 H           5.9946   -0.7502    0.0000 H       1  UNL1        0.0384
     29 H           6.4766   -0.1458    0.0000 H       1  UNL1        0.0384
     30 H           4.5936    2.2154    0.0000 H       1  UNL1        0.0705
     31 H           3.8971    1.8800    0.0000 H       1  UNL1        0.0705
     32 H           3.3022    1.8796    0.0000 H       1  UNL1        0.0238
     33 H           2.4498    1.6739    0.0000 H       1  UNL1        0.0238
     34 H           2.6556    0.8215    0.0000 H       1  UNL1        0.0238
     35 H           5.1120   -2.7041    0.0000 H       1  UNL1        0.0233
     36 H           5.9887   -2.6860    0.0000 H       1  UNL1        0.0233
     37 H           5.9705   -1.8093    0.0000 H       1  UNL1        0.0233
     38 H           2.6415   -0.0612    0.0000 H       1  UNL1        0.2103
     39 H           5.4818    1.3502    0.0000 H       1  UNL1        0.0262
     40 H           5.3967    2.2229    0.0000 H       1  UNL1        0.0262
     41 H           4.5240    2.1378    0.0000 H       1  UNL1        0.0262
     42 H           2.0000   -1.2247    0.0000 H       1  UNL1        0.2099
     43 H           4.0685    2.2567    0.0000 H       1  UNL1        0.2108
@<TRIPOS>BOND
     1     8     1    1
     2     1    38    1
     3    11     2    1
     4     2    42    1
     5     3    16    1
     6     3    21    1
     7    14     4    1
     8     4    43    1
     9     5    17    2
    10     6    21    2
    11     7     8    1
    12     7    10    1
    13     7    13    1
    14     7    15    1
    15     8     9    1
    16     8    11    1
    17     9    14    1
    18     9    16    1
    19     9    18    1
    20    10    12    1
    21    10    19    1
    22    10    22    1
    23    11    12    1
    24    11    23    1
    25    12    24    1
    26    12    25    1
    27    13    17    1
    28    13    26    1
    29    13    27    1
    30    14    17    1
    31    14    20    1
    32    15    21    1
    33    15    28    1
    34    15    29    1
    35    16    30    1
    36    16    31    1
    37    18    32    1
    38    18    33    1
    39    18    34    1
    40    19    35    1
    41    19    36    1
    42    19    37    1
    43    20    39    1
    44    20    40    1
    45    20    41    1
