@<TRIPOS>MOLECULE
IMPHY017085
 20 20 0 0 0
SMALL
GASTEIGER

@<TRIPOS>ATOM
      1 O           2.0000   -1.9239    0.0000 O.2     1  UNL1       -0.2974
      2 C           3.0878    0.4239    0.0000 C.3     1  UNL1       -0.0342
      3 C           3.8968   -0.1639    0.0000 C.3     1  UNL1       -0.0432
      4 C           2.2788   -0.1639    0.0000 C.3     1  UNL1        0.0087
      5 C           3.5878   -1.1149    0.0000 C.3     1  UNL1        0.0061
      6 C           3.0878    1.4239    0.0000 C.3     1  UNL1       -0.0527
      7 C           2.5878   -1.1149    0.0000 C.2     1  UNL1        0.1336
      8 C           3.9538    1.9239    0.0000 C.3     1  UNL1       -0.0650
      9 H           3.8451    0.8098    0.0000 H       1  UNL1        0.0305
     10 H           4.4632   -0.4160    0.0000 H       1  UNL1        0.0272
     11 H           4.2068    0.3731    0.0000 H       1  UNL1        0.0272
     12 H           1.9688    0.3731    0.0000 H       1  UNL1        0.0344
     13 H           1.7124   -0.4160    0.0000 H       1  UNL1        0.0344
     14 H           3.5230   -1.7315    0.0000 H       1  UNL1        0.0342
     15 H           4.1942   -1.2438    0.0000 H       1  UNL1        0.0342
     16 H           2.8757    2.0065    0.0000 H       1  UNL1        0.0265
     17 H           2.4772    1.3163    0.0000 H       1  UNL1        0.0265
     18 H           4.2638    1.3870    0.0000 H       1  UNL1        0.0230
     19 H           4.4908    2.2339    0.0000 H       1  UNL1        0.0230
     20 H           3.6438    2.4609    0.0000 H       1  UNL1        0.0230
@<TRIPOS>BOND
     1     1     7    2
     2     2     3    1
     3     2     4    1
     4     2     6    1
     5     2     9    1
     6     3     5    1
     7     3    10    1
     8     3    11    1
     9     4     7    1
    10     4    12    1
    11     4    13    1
    12     5     7    1
    13     5    14    1
    14     5    15    1
    15     6     8    1
    16     6    16    1
    17     6    17    1
    18     8    18    1
    19     8    19    1
    20     8    20    1
