@<TRIPOS>MOLECULE
IMPHY007478
 78 79 0 0 0
SMALL
GASTEIGER

@<TRIPOS>ATOM
      1 O           6.0290   -1.0347    0.0000 O.3     1  UNL1       -0.4883
      2 O           2.5369    1.0000    0.0000 O.3     1  UNL1       -0.5062
      3 C          10.3991   -0.5342    0.0000 C.3     1  UNL1       -0.0439
      4 C           9.5312   -1.0308    0.0000 C.3     1  UNL1       -0.0503
      5 C          11.2632   -1.0375    0.0000 C.3     1  UNL1       -0.0505
      6 C           6.9350   -0.5208    0.0000 C.3     1  UNL1        0.1005
      7 C           8.6671   -0.5275    0.0000 C.3     1  UNL1       -0.0495
      8 C           7.7991   -1.0241    0.0000 C.3     1  UNL1       -0.0157
      9 C          12.1311   -0.5408    0.0000 C.3     1  UNL1       -0.0526
     10 C          13.8632   -0.5475    0.0000 C.3     1  UNL1       -0.0439
     11 C          12.9952   -1.0442    0.0000 C.3     1  UNL1       -0.0505
     12 C           6.9350    0.5208    0.0000 C.3     1  UNL1       -0.0117
     13 C          14.7273   -1.0508    0.0000 C.3     1  UNL1       -0.0505
     14 C           6.0290    1.0347    0.0000 C.3     1  UNL1       -0.0205
     15 C           5.1350    0.5000    0.0000 C.ar    1  UNL1        0.0011
     16 C          10.4030    0.4658    0.0000 C.3     1  UNL1       -0.0624
     17 C          15.5952   -0.5542    0.0000 C.3     1  UNL1       -0.0526
     18 C           5.1350   -0.5000    0.0000 C.ar    1  UNL1        0.1277
     19 C          13.8670    0.4525    0.0000 C.3     1  UNL1       -0.0624
     20 C          16.4593   -1.0575    0.0000 C.3     1  UNL1       -0.0507
     21 C           4.2690    1.0000    0.0000 C.ar    1  UNL1       -0.0021
     22 C           4.2690   -1.0000    0.0000 C.ar    1  UNL1       -0.0021
     23 C          17.3272   -0.5609    0.0000 C.3     1  UNL1       -0.0467
     24 C           3.4030   -0.5000    0.0000 C.ar    1  UNL1       -0.0024
     25 C           3.4030    0.5000    0.0000 C.ar    1  UNL1        0.1234
     26 C           4.2690    2.0000    0.0000 C.3     1  UNL1       -0.0359
     27 C           4.2690   -2.0000    0.0000 C.3     1  UNL1       -0.0359
     28 C          18.1913   -1.0642    0.0000 C.3     1  UNL1       -0.0627
     29 C          17.3311    0.4391    0.0000 C.3     1  UNL1       -0.0627
     30 C           2.5369   -1.0000    0.0000 C.3     1  UNL1       -0.0359
     31 H           9.8634   -0.2221    0.0000 H       1  UNL1        0.0298
     32 H           9.1308   -1.5042    0.0000 H       1  UNL1        0.0268
     33 H           9.9278   -1.5073    0.0000 H       1  UNL1        0.0268
     34 H          10.8628   -1.5109    0.0000 H       1  UNL1        0.0268
     35 H          11.6599   -1.5140    0.0000 H       1  UNL1        0.0268
     36 H           6.9314   -1.1408    0.0000 H       1  UNL1        0.0733
     37 H           9.0674   -0.0541    0.0000 H       1  UNL1        0.0267
     38 H           8.2704   -0.0510    0.0000 H       1  UNL1        0.0267
     39 H           7.3988   -1.4976    0.0000 H       1  UNL1        0.0301
     40 H           8.1958   -1.5006    0.0000 H       1  UNL1        0.0301
     41 H          12.5315   -0.0674    0.0000 H       1  UNL1        0.0265
     42 H          11.7344   -0.0644    0.0000 H       1  UNL1        0.0265
     43 H          13.3274   -0.2355    0.0000 H       1  UNL1        0.0298
     44 H          12.5949   -1.5176    0.0000 H       1  UNL1        0.0268
     45 H          13.3919   -1.5207    0.0000 H       1  UNL1        0.0268
     46 H           7.5459    0.4147    0.0000 H       1  UNL1        0.0304
     47 H           7.1441    1.1045    0.0000 H       1  UNL1        0.0304
     48 H          14.3269   -1.5243    0.0000 H       1  UNL1        0.0268
     49 H          15.1240   -1.5273    0.0000 H       1  UNL1        0.0268
     50 H           6.4226    1.5137    0.0000 H       1  UNL1        0.0316
     51 H           5.6244    1.5044    0.0000 H       1  UNL1        0.0316
     52 H          11.0229    0.4634    0.0000 H       1  UNL1        0.0232
     53 H          10.4053    1.0858    0.0000 H       1  UNL1        0.0232
     54 H           9.7830    0.4682    0.0000 H       1  UNL1        0.0232
     55 H          15.9956   -0.0808    0.0000 H       1  UNL1        0.0265
     56 H          15.1985   -0.0777    0.0000 H       1  UNL1        0.0265
     57 H          14.4870    0.4501    0.0000 H       1  UNL1        0.0232
     58 H          13.8694    1.0725    0.0000 H       1  UNL1        0.0232
     59 H          13.2470    0.4549    0.0000 H       1  UNL1        0.0232
     60 H          16.0589   -1.5309    0.0000 H       1  UNL1        0.0268
     61 H          16.8560   -1.5340    0.0000 H       1  UNL1        0.0268
     62 H          16.7915   -0.2488    0.0000 H       1  UNL1        0.0295
     63 H           4.8890    2.0000    0.0000 H       1  UNL1        0.0279
     64 H           4.2690    2.6200    0.0000 H       1  UNL1        0.0279
     65 H           3.6490    2.0000    0.0000 H       1  UNL1        0.0279
     66 H           3.6490   -2.0000    0.0000 H       1  UNL1        0.0279
     67 H           4.2690   -2.6200    0.0000 H       1  UNL1        0.0279
     68 H           4.8890   -2.0000    0.0000 H       1  UNL1        0.0279
     69 H          17.8793   -1.5999    0.0000 H       1  UNL1        0.0232
     70 H          18.7271   -1.3763    0.0000 H       1  UNL1        0.0232
     71 H          18.5034   -0.5285    0.0000 H       1  UNL1        0.0232
     72 H          17.9511    0.4367    0.0000 H       1  UNL1        0.0232
     73 H          17.3335    1.0591    0.0000 H       1  UNL1        0.0232
     74 H          16.7111    0.4415    0.0000 H       1  UNL1        0.0232
     75 H           2.2269   -0.4631    0.0000 H       1  UNL1        0.0279
     76 H           2.0000   -1.3100    0.0000 H       1  UNL1        0.0279
     77 H           2.8469   -1.5369    0.0000 H       1  UNL1        0.0279
     78 H           2.0000    0.6900    0.0000 H       1  UNL1        0.2922
@<TRIPOS>BOND
     1     1     6    1
     2     1    18    1
     3     2    25    1
     4     2    78    1
     5     3     4    1
     6     3     5    1
     7     3    16    1
     8     3    31    1
     9     4     7    1
    10     4    32    1
    11     4    33    1
    12     5     9    1
    13     5    34    1
    14     5    35    1
    15     6     8    1
    16     6    12    1
    17     6    36    1
    18     7     8    1
    19     7    37    1
    20     7    38    1
    21     8    39    1
    22     8    40    1
    23     9    11    1
    24     9    41    1
    25     9    42    1
    26    10    11    1
    27    10    13    1
    28    10    19    1
    29    10    43    1
    30    11    44    1
    31    11    45    1
    32    12    14    1
    33    12    46    1
    34    12    47    1
    35    13    17    1
    36    13    48    1
    37    13    49    1
    38    14    15    1
    39    14    50    1
    40    14    51    1
    41    15    18   ar
    42    15    21   ar
    43    16    52    1
    44    16    53    1
    45    16    54    1
    46    17    20    1
    47    17    55    1
    48    17    56    1
    49    18    22   ar
    50    19    57    1
    51    19    58    1
    52    19    59    1
    53    20    23    1
    54    20    60    1
    55    20    61    1
    56    21    25   ar
    57    21    26    1
    58    22    24   ar
    59    22    27    1
    60    23    28    1
    61    23    29    1
    62    23    62    1
    63    24    25   ar
    64    24    30    1
    65    26    63    1
    66    26    64    1
    67    26    65    1
    68    27    66    1
    69    27    67    1
    70    27    68    1
    71    28    69    1
    72    28    70    1
    73    28    71    1
    74    29    72    1
    75    29    73    1
    76    29    74    1
    77    30    75    1
    78    30    76    1
    79    30    77    1
