@<TRIPOS>MOLECULE
IMPHY004345
 65 66 0 0 0
SMALL
GASTEIGER

@<TRIPOS>ATOM
      1 O           4.5981   -3.5124    0.0000 O.3     1  UNL1       -0.4939
      2 O           5.9662    4.2464    0.0000 O.3     1  UNL1       -0.4939
      3 O           2.8660   -0.5124    0.0000 O.3     1  UNL1       -0.5055
      4 O           6.5677    0.8349    0.0000 O.3     1  UNL1       -0.5055
      5 O           6.4489   -1.1861    0.0000 O.3     1  UNL1       -0.5060
      6 O           3.3125    2.0197    0.0000 O.3     1  UNL1       -0.5060
      7 O           2.0000   -2.0124    0.0000 O.2     1  UNL1       -0.2918
      8 O           7.8945    1.9482    0.0000 O.2     1  UNL1       -0.2918
      9 C           4.5981    0.4876    0.0000 C.3     1  UNL1        0.0115
     10 C           4.5981   -0.5124    0.0000 C.ar    1  UNL1        0.0411
     11 C           4.9401    1.4273    0.0000 C.ar    1  UNL1        0.0411
     12 C           3.7320   -1.0124    0.0000 C.ar    1  UNL1        0.1378
     13 C           5.9249    1.6009    0.0000 C.ar    1  UNL1        0.1378
     14 C           3.7320   -2.0124    0.0000 C.ar    1  UNL1        0.1010
     15 C           6.2669    2.5406    0.0000 C.ar    1  UNL1        0.1010
     16 C           5.4641   -1.0124    0.0000 C.ar    1  UNL1        0.1302
     17 C           4.2973    2.1933    0.0000 C.ar    1  UNL1        0.1302
     18 C           5.4641   -2.0124    0.0000 C.ar    1  UNL1        0.0337
     19 C           4.6393    3.1330    0.0000 C.ar    1  UNL1        0.0337
     20 C           4.5981   -2.5124    0.0000 C.ar    1  UNL1        0.1404
     21 C           5.6241    3.3067    0.0000 C.ar    1  UNL1        0.1404
     22 C           2.8660   -2.5124    0.0000 C.2     1  UNL1        0.1702
     23 C           7.2517    2.7143    0.0000 C.2     1  UNL1        0.1702
     24 C           2.8660   -3.5124    0.0000 C.3     1  UNL1        0.0105
     25 C           7.5938    3.6540    0.0000 C.3     1  UNL1        0.0105
     26 C           6.3301   -2.5124    0.0000 C.3     1  UNL1       -0.0327
     27 C           3.9965    3.8991    0.0000 C.3     1  UNL1       -0.0327
     28 C           2.0000   -4.0124    0.0000 C.3     1  UNL1       -0.0489
     29 C           8.5786    3.8276    0.0000 C.3     1  UNL1       -0.0489
     30 C           8.9206    4.7673    0.0000 C.3     1  UNL1       -0.0649
     31 C           2.0000   -5.0124    0.0000 C.3     1  UNL1       -0.0649
     32 C           5.4641   -4.0124    0.0000 C.3     1  UNL1        0.0788
     33 C           5.3234    5.0124    0.0000 C.3     1  UNL1        0.0788
     34 H           4.1471    0.9131    0.0000 H       1  UNL1        0.0366
     35 H           5.2087    0.3799    0.0000 H       1  UNL1        0.0366
     36 H           7.5938    4.2740    0.0000 H       1  UNL1        0.0345
     37 H           6.9832    3.7616    0.0000 H       1  UNL1        0.0345
     38 H           3.0781   -4.0950    0.0000 H       1  UNL1        0.0345
     39 H           3.4766   -3.4048    0.0000 H       1  UNL1        0.0345
     40 H           6.0201   -3.0493    0.0000 H       1  UNL1        0.0280
     41 H           6.8671   -2.8224    0.0000 H       1  UNL1        0.0280
     42 H           6.6401   -1.9755    0.0000 H       1  UNL1        0.0280
     43 H           4.4715    4.2976    0.0000 H       1  UNL1        0.0280
     44 H           3.5980    4.3740    0.0000 H       1  UNL1        0.0280
     45 H           3.5216    3.5005    0.0000 H       1  UNL1        0.0280
     46 H           1.7880   -3.4298    0.0000 H       1  UNL1        0.0267
     47 H           1.3894   -4.1201    0.0000 H       1  UNL1        0.0267
     48 H           8.5786    3.2076    0.0000 H       1  UNL1        0.0267
     49 H           9.1891    3.7200    0.0000 H       1  UNL1        0.0267
     50 H           2.8660    0.1076    0.0000 H       1  UNL1        0.2922
     51 H           6.3556    0.2523    0.0000 H       1  UNL1        0.2922
     52 H           6.6610   -1.7687    0.0000 H       1  UNL1        0.2922
     53 H           2.9140    2.4946    0.0000 H       1  UNL1        0.2922
     54 H           1.3800   -5.0124    0.0000 H       1  UNL1        0.0230
     55 H           2.0000   -5.6324    0.0000 H       1  UNL1        0.0230
     56 H           2.6200   -5.0124    0.0000 H       1  UNL1        0.0230
     57 H           9.5032    4.5553    0.0000 H       1  UNL1        0.0230
     58 H           9.1326    5.3499    0.0000 H       1  UNL1        0.0230
     59 H           8.3380    4.9794    0.0000 H       1  UNL1        0.0230
     60 H           5.7983    5.4109    0.0000 H       1  UNL1        0.0660
     61 H           4.9248    5.4874    0.0000 H       1  UNL1        0.0660
     62 H           4.8484    4.6139    0.0000 H       1  UNL1        0.0660
     63 H           5.1541   -4.5493    0.0000 H       1  UNL1        0.0660
     64 H           6.0010   -4.3224    0.0000 H       1  UNL1        0.0660
     65 H           5.7741   -3.4755    0.0000 H       1  UNL1        0.0660
@<TRIPOS>BOND
     1     1    20    1
     2     1    32    1
     3     2    21    1
     4     2    33    1
     5     3    12    1
     6     3    50    1
     7     4    13    1
     8     4    51    1
     9     5    16    1
    10     5    52    1
    11     6    17    1
    12     6    53    1
    13     7    22    2
    14     8    23    2
    15     9    10    1
    16     9    11    1
    17     9    34    1
    18     9    35    1
    19    10    12   ar
    20    10    16   ar
    21    11    13   ar
    22    11    17   ar
    23    12    14   ar
    24    13    15   ar
    25    14    20   ar
    26    14    22    1
    27    15    21   ar
    28    15    23    1
    29    16    18   ar
    30    17    19   ar
    31    18    20   ar
    32    18    26    1
    33    19    21   ar
    34    19    27    1
    35    22    24    1
    36    23    25    1
    37    24    28    1
    38    24    38    1
    39    24    39    1
    40    25    29    1
    41    25    36    1
    42    25    37    1
    43    26    40    1
    44    26    41    1
    45    26    42    1
    46    27    43    1
    47    27    44    1
    48    27    45    1
    49    28    31    1
    50    28    46    1
    51    28    47    1
    52    29    30    1
    53    29    48    1
    54    29    49    1
    55    30    57    1
    56    30    58    1
    57    30    59    1
    58    31    54    1
    59    31    55    1
    60    31    56    1
    61    32    63    1
    62    32    64    1
    63    32    65    1
    64    33    60    1
    65    33    61    1
    66    33    62    1
