@<TRIPOS>MOLECULE
IMPHY006950
 26 28 0 0 0
SMALL
GASTEIGER

@<TRIPOS>ATOM
      1 C           2.5739   -0.1624    0.0000 C.3     1  UNL1       -0.0205
      2 C           2.3886    0.6108    0.0000 C.3     1  UNL1       -0.0312
      3 C           2.0000   -0.5824    0.0000 C.3     1  UNL1       -0.0312
      4 C           3.2246   -0.3249    0.0000 C.3     1  UNL1       -0.0261
      5 C           4.0843    0.0004    0.0000 C.3     1  UNL1       -0.0348
      6 C           3.3827    0.7441    0.0000 C.3     1  UNL1       -0.0461
      7 C           3.3827   -0.9608    0.0000 C.3     1  UNL1       -0.0461
      8 C           2.8211    0.9608    0.0000 C.3     1  UNL1       -0.0585
      9 C           4.0904   -0.8254    0.0000 C.3     1  UNL1       -0.0590
     10 C           3.9331    0.5809    0.0000 C.3     1  UNL1       -0.0590
     11 H           1.2518   -0.9857    0.0000 H       1  UNL1        0.0309
     12 H           1.8445    1.2638    0.0000 H       1  UNL1        0.0309
     13 H           4.7031    0.0393    0.0000 H       1  UNL1        0.0306
     14 H           3.1480   -1.5346    0.0000 H       1  UNL1        0.0271
     15 H           3.9240   -1.2631    0.0000 H       1  UNL1        0.0271
     16 H           3.9117    1.0674    0.0000 H       1  UNL1        0.0271
     17 H           3.1754    1.3284    0.0000 H       1  UNL1        0.0271
     18 H           3.4266    0.8275    0.0000 H       1  UNL1        0.0235
     19 H           2.9543    1.5663    0.0000 H       1  UNL1        0.0235
     20 H           2.2156    1.0940    0.0000 H       1  UNL1        0.0235
     21 H           4.4214    0.1990    0.0000 H       1  UNL1        0.0235
     22 H           4.3150    1.0693    0.0000 H       1  UNL1        0.0235
     23 H           3.4447    0.9629    0.0000 H       1  UNL1        0.0235
     24 H           3.7802   -1.3621    0.0000 H       1  UNL1        0.0235
     25 H           4.6272   -1.1356    0.0000 H       1  UNL1        0.0235
     26 H           4.4007   -0.2886    0.0000 H       1  UNL1        0.0235
@<TRIPOS>BOND
     1     1     2    1
     2     1     3    1
     3     1     4    1
     4     1     8    1
     5     2     3    1
     6     2     6    1
     7     2    12    1
     8     3     7    1
     9     3    11    1
    10     4     5    1
    11     4     9    1
    12     4    10    1
    13     5     6    1
    14     5     7    1
    15     5    13    1
    16     6    16    1
    17     6    17    1
    18     7    14    1
    19     7    15    1
    20     8    18    1
    21     8    19    1
    22     8    20    1
    23     9    24    1
    24     9    25    1
    25     9    26    1
    26    10    21    1
    27    10    22    1
    28    10    23    1
