@<TRIPOS>MOLECULE
IMPHY002396
 19 18 0 0 0
SMALL
GASTEIGER

@<TRIPOS>ATOM
      1 C          -1.1064    1.3229    0.0000 C.2     1  UNL1        0.3458
      2 C          -1.1064    0.4979    0.0000 C.3     1  UNL1        0.2357
      3 O          -1.9314    0.4979    0.0000 O.3     1  UNL1       -0.2131
      4 C          -0.2814    0.4979    0.0000 C.3     1  UNL1        0.1514
      5 C           0.3020   -0.0854    0.0000 C.2     1  UNL1        0.3201
      6 O           1.1270   -0.0854    0.0000 O.3     1  UNL1       -0.4484
      7 C           1.7103   -0.6688    0.0000 C.3     1  UNL1        0.2086
      8 C           2.5353   -0.6688    0.0000 C.3     1  UNL1        0.0513
      9 O          -0.1105   -0.7999    0.0000 O.2     1  UNL1       -0.2500
     10 C          -1.1064   -0.3271    0.0000 C.3     1  UNL1        0.1514
     11 C          -1.6898   -0.9104    0.0000 C.2     1  UNL1        0.3201
     12 O          -1.6898   -1.7354    0.0000 O.3     1  UNL1       -0.4484
     13 C          -2.4042   -2.1479    0.0000 C.3     1  UNL1        0.2086
     14 C          -2.4042   -2.9729    0.0000 C.3     1  UNL1        0.0513
     15 O          -2.4866   -0.6969    0.0000 O.2     1  UNL1       -0.2500
     16 O          -1.8209    1.7354    0.0000 O.3     1  UNL1       -0.4468
     17 O          -0.5230    1.9063    0.0000 O.2     1  UNL1       -0.2474
     18 C          -1.8209    2.5604    0.0000 C.3     1  UNL1        0.2086
     19 C          -2.5353    2.9729    0.0000 C.3     1  UNL1        0.0513
@<TRIPOS>BOND
     1     1     2    1
     2     1    16    1
     3     1    17    2
     4     2     3    1
     5     2     4    1
     6     2    10    1
     7     4     5    1
     8     5     6    1
     9     5     9    2
    10     6     7    1
    11     7     8    1
    12    10    11    1
    13    11    12    1
    14    11    15    2
    15    12    13    1
    16    13    14    1
    17    16    18    1
    18    18    19    1
