@<TRIPOS>MOLECULE
IMPHY003445
 22 23 0 0 0
SMALL
GASTEIGER

@<TRIPOS>ATOM
      1 O           6.0682    2.0000    0.0000 O.2     1  UNL1       -0.2871
      2 O           2.5381    1.0241    0.0000 O.3     1  UNL1       -0.5067
      3 O           8.6663   -0.5000    0.0000 O.3     1  UNL1       -0.4761
      4 OXT         7.8003   -2.0000    0.0000 O.2     1  UNL1       -0.2435
      5 N           6.0682   -1.0000    0.0000 N.ar    1  UNL1       -0.3489
      6 C           5.2022   -0.5000    0.0000 C.ar    1  UNL1        0.0509
      7 C           5.2022    0.5000    0.0000 C.ar    1  UNL1        0.0484
      8 C           6.0682    1.0000    0.0000 C.ar    1  UNL1        0.1903
      9 CA          6.9343   -0.5000    0.0000 C.ar    1  UNL1        0.1283
     10 C           4.3083    1.0347    0.0000 C.ar    1  UNL1       -0.0074
     11 C           4.3083   -1.0347    0.0000 C.ar    1  UNL1       -0.0342
     12 C           6.9343    0.5000    0.0000 C.ar    1  UNL1        0.0161
     13 C           3.4022    0.5208    0.0000 C.ar    1  UNL1        0.1177
     14 C           3.4022   -0.5208    0.0000 C.ar    1  UNL1       -0.0182
     15 C           7.8003   -1.0000    0.0000 C.2     1  UNL1        0.3534
     16 H           6.0682   -1.6200    0.0000 H       1  UNL1        0.1661
     17 H           4.3154    1.6546    0.0000 H       1  UNL1        0.0662
     18 H           4.3154   -1.6546    0.0000 H       1  UNL1        0.0639
     19 H           7.4712    0.8100    0.0000 H       1  UNL1        0.0679
     20 H           2.8665   -0.8329    0.0000 H       1  UNL1        0.0655
     21 H           2.0000    0.7162    0.0000 H       1  UNL1        0.2921
     22 H           9.2033   -0.8100    0.0000 H       1  UNL1        0.2955
@<TRIPOS>BOND
     1     1     8    2
     2     2    13    1
     3     2    21    1
     4     3    15    1
     5     3    22    1
     6     4    15    2
     7     5     6   ar
     8     5     9   ar
     9     5    16    1
    10     6     7   ar
    11     6    11   ar
    12     7     8   ar
    13     7    10   ar
    14     8    12   ar
    15     9    12   ar
    16     9    15    1
    17    10    13   ar
    18    10    17    1
    19    11    14   ar
    20    11    18    1
    21    12    19    1
    22    13    14   ar
    23    14    20    1
