@<TRIPOS>MOLECULE
IMPHY002104
 58 63 0 0 0
SMALL
GASTEIGER

@<TRIPOS>ATOM
      1 O           6.4005   -3.5000    0.0000 O.2     1  UNL1       -0.2864
      2 O           6.4005    3.5000    0.0000 O.2     1  UNL1       -0.2864
      3 O           8.1489   -3.5346    0.0000 O.3     1  UNL1       -0.5060
      4 O           4.6521    3.5346    0.0000 O.3     1  UNL1       -0.5060
      5 O           4.6521   -3.5346    0.0000 O.3     1  UNL1       -0.5060
      6 O           8.1489    3.5346    0.0000 O.3     1  UNL1       -0.5060
      7 O          10.7985   -0.9725    0.0000 O.3     1  UNL1       -0.4771
      8 O           2.0024    0.9725    0.0000 O.3     1  UNL1       -0.4771
      9 O           9.9267    0.5241    0.0000 O.2     1  UNL1       -0.2451
     10 O           2.8742   -0.5241    0.0000 O.2     1  UNL1       -0.2451
     11 C           6.4005   -0.5000    0.0000 C.3     1  UNL1        0.0217
     12 C           6.4005    0.5000    0.0000 C.3     1  UNL1        0.0217
     13 C           7.2665   -1.0000    0.0000 C.ar    1  UNL1       -0.0240
     14 C           5.5344    1.0000    0.0000 C.ar    1  UNL1       -0.0240
     15 C           5.5344   -1.0000    0.0000 C.ar    1  UNL1       -0.0247
     16 C           7.2665    1.0000    0.0000 C.ar    1  UNL1       -0.0247
     17 C           7.2665   -2.0000    0.0000 C.ar    1  UNL1        0.0675
     18 C           5.5344    2.0000    0.0000 C.ar    1  UNL1        0.0675
     19 C           5.5344   -2.0000    0.0000 C.ar    1  UNL1        0.0675
     20 C           7.2665    2.0000    0.0000 C.ar    1  UNL1        0.0675
     21 C           6.4005    2.5000    0.0000 C.2     1  UNL1        0.2007
     22 C           6.4005   -2.5000    0.0000 C.2     1  UNL1        0.2007
     23 C           8.1604   -0.4653    0.0000 C.ar    1  UNL1       -0.0431
     24 C           4.6405    0.4653    0.0000 C.ar    1  UNL1       -0.0431
     25 C           4.6405   -0.4653    0.0000 C.ar    1  UNL1       -0.0571
     26 C           8.1604    0.4653    0.0000 C.ar    1  UNL1       -0.0571
     27 C           8.1604   -2.5347    0.0000 C.ar    1  UNL1        0.1287
     28 C           4.6405    2.5347    0.0000 C.ar    1  UNL1        0.1287
     29 C           4.6405   -2.5347    0.0000 C.ar    1  UNL1        0.1279
     30 C           8.1604    2.5347    0.0000 C.ar    1  UNL1        0.1279
     31 C           9.0665   -0.9792    0.0000 C.ar    1  UNL1        0.0626
     32 C           3.7344    0.9792    0.0000 C.ar    1  UNL1        0.0626
     33 C           3.7344   -0.9792    0.0000 C.ar    1  UNL1       -0.0580
     34 C           9.0665    0.9792    0.0000 C.ar    1  UNL1       -0.0580
     35 C           9.0665   -2.0208    0.0000 C.ar    1  UNL1       -0.0055
     36 C           3.7344    2.0208    0.0000 C.ar    1  UNL1       -0.0055
     37 C           3.7344   -2.0208    0.0000 C.ar    1  UNL1       -0.0194
     38 C           9.0665    2.0208    0.0000 C.ar    1  UNL1       -0.0194
     39 C           9.9306   -0.4758    0.0000 C.2     1  UNL1        0.3369
     40 C           2.8703    0.4758    0.0000 C.2     1  UNL1        0.3369
     41 H           7.1366   -0.0750    0.0000 H       1  UNL1        0.0407
     42 H           5.6643    0.0750    0.0000 H       1  UNL1        0.0407
     43 H           8.1533    0.1546    0.0000 H       1  UNL1        0.0629
     44 H           4.6477   -0.1546    0.0000 H       1  UNL1        0.0629
     45 H           4.6477    0.1546    0.0000 H       1  UNL1        0.0621
     46 H           8.1533   -0.1546    0.0000 H       1  UNL1        0.0621
     47 H           3.1987   -0.6671    0.0000 H       1  UNL1        0.0619
     48 H           9.6022    0.6671    0.0000 H       1  UNL1        0.0619
     49 H           9.6022   -2.3329    0.0000 H       1  UNL1        0.0662
     50 H           3.1987    2.3329    0.0000 H       1  UNL1        0.0662
     51 H           3.1987   -2.3329    0.0000 H       1  UNL1        0.0654
     52 H           9.6022    2.3329    0.0000 H       1  UNL1        0.0654
     53 H           4.1187    3.8508    0.0000 H       1  UNL1        0.2922
     54 H           8.6822   -3.8508    0.0000 H       1  UNL1        0.2922
     55 H           4.1187   -3.8508    0.0000 H       1  UNL1        0.2922
     56 H           8.6822    3.8508    0.0000 H       1  UNL1        0.2922
     57 H          11.3343   -0.6604    0.0000 H       1  UNL1        0.2954
     58 H           2.0000    1.5925    0.0000 H       1  UNL1        0.2954
@<TRIPOS>BOND
     1     1    22    2
     2     2    21    2
     3     3    27    1
     4     3    54    1
     5     4    28    1
     6     4    53    1
     7     5    29    1
     8     5    55    1
     9     6    30    1
    10     6    56    1
    11     7    39    1
    12     7    57    1
    13     8    40    1
    14     8    58    1
    15     9    39    2
    16    10    40    2
    17    11    12    1
    18    11    13    1
    19    11    15    1
    20    11    41    1
    21    12    14    1
    22    12    16    1
    23    12    42    1
    24    13    17   ar
    25    13    23   ar
    26    14    18   ar
    27    14    24   ar
    28    15    19   ar
    29    15    25   ar
    30    16    20   ar
    31    16    26   ar
    32    17    22    1
    33    17    27   ar
    34    18    21    1
    35    18    28   ar
    36    19    22    1
    37    19    29   ar
    38    20    21    1
    39    20    30   ar
    40    23    31   ar
    41    23    43    1
    42    24    32   ar
    43    24    44    1
    44    25    33   ar
    45    25    45    1
    46    26    34   ar
    47    26    46    1
    48    27    35   ar
    49    28    36   ar
    50    29    37   ar
    51    30    38   ar
    52    31    35   ar
    53    31    39    1
    54    32    36   ar
    55    32    40    1
    56    33    37   ar
    57    33    47    1
    58    34    38   ar
    59    34    48    1
    60    35    49    1
    61    36    50    1
    62    37    51    1
    63    38    52    1
