@<TRIPOS>MOLECULE
IMPHY006954
 17 16 0 0 0
SMALL
GASTEIGER

@<TRIPOS>ATOM
      1 S           6.0010    0.5950    0.0000 S.3     1  UNL1       -0.0908
      2 O           2.5369    0.5950    0.0000 O.3     1  UNL1       -0.4806
      3 O           3.4030   -0.9050    0.0000 O.2     1  UNL1       -0.2510
      4 N           7.7331    0.5950    0.0000 N.pl3   1  UNL1       -0.3382
      5 N           6.8671   -0.9050    0.0000 N.2     1  UNL1       -0.2801
      6 C           4.2690    0.5950    0.0000 C.3     1  UNL1        0.0542
      7 C           5.1350    0.0950    0.0000 C.3     1  UNL1        0.0109
      8 C           3.4030    0.0950    0.0000 C.2     1  UNL1        0.3055
      9 C           6.8671    0.0950    0.0000 C.2     1  UNL1        0.1439
     10 H           4.6675    1.0700    0.0000 H       1  UNL1        0.0386
     11 H           3.8705    1.0700    0.0000 H       1  UNL1        0.0386
     12 H           4.7365   -0.3799    0.0000 H       1  UNL1        0.0386
     13 H           5.5335   -0.3799    0.0000 H       1  UNL1        0.0386
     14 H           8.2700    0.2850    0.0000 H       1  UNL1        0.1442
     15 H           7.7331    1.2150    0.0000 H       1  UNL1        0.1442
     16 H           2.0000    0.2850    0.0000 H       1  UNL1        0.2951
     17 H           7.4040   -1.2150    0.0000 H       1  UNL1        0.1886
@<TRIPOS>BOND
     1     1     7    1
     2     1     9    1
     3     2     8    1
     4     2    16    1
     5     3     8    2
     6     4     9    1
     7     4    14    1
     8     4    15    1
     9     5     9    2
    10     5    17    1
    11     6     7    1
    12     6     8    1
    13     6    10    1
    14     6    11    1
    15     7    12    1
    16     7    13    1
