@<TRIPOS>MOLECULE
IMPHY003655
 99 104 0 0 0
SMALL
GASTEIGER

@<TRIPOS>ATOM
      1 O           8.6036   -2.3085    0.0000 O.3     1  UNL1       -0.4551
      2 O           8.6198   -0.2169    0.0000 O.3     1  UNL1       -0.3881
      3 O          17.5287    0.7780    0.0000 O.3     1  UNL1       -0.4802
      4 O          16.6743   -0.7287    0.0000 O.2     1  UNL1       -0.2504
      5 O           7.7434   -0.8052    0.0000 O.2     1  UNL1       -0.2456
      6 O           2.5357   -3.7852    0.0000 O.3     1  UNL1       -0.5068
      7 C          13.1307   -0.7562    0.0000 C.3     1  UNL1       -0.0194
      8 C          12.2647   -0.2562    0.0000 C.3     1  UNL1       -0.0257
      9 C          11.3547   -0.7630    0.0000 C.3     1  UNL1       -0.0226
     10 C          13.9967   -0.2562    0.0000 C.3     1  UNL1       -0.0051
     11 C          11.3467   -1.8046    0.0000 C.3     1  UNL1       -0.0267
     12 C          13.1468   -1.7977    0.0000 C.3     1  UNL1       -0.0463
     13 C          12.2487   -2.3255    0.0000 C.3     1  UNL1       -0.0486
     14 C          10.4112   -2.3544    0.0000 C.3     1  UNL1        0.0080
     15 C          13.9967    0.7438    0.0000 C.2     1  UNL1       -0.0629
     16 C          10.4278   -0.1990    0.0000 C.3     1  UNL1       -0.0174
     17 C          12.2647    0.7438    0.0000 C.3     1  UNL1       -0.0306
     18 C          14.8907    1.2785    0.0000 C.3     1  UNL1       -0.0031
     19 C          14.8907   -0.7909    0.0000 C.3     1  UNL1       -0.0424
     20 C          15.7967    0.7646    0.0000 C.3     1  UNL1        0.0741
     21 C          13.7735   -1.5223    0.0000 C.3     1  UNL1       -0.0585
     22 C           9.4716   -1.8119    0.0000 C.3     1  UNL1        0.1344
     23 C          15.7967   -0.2770    0.0000 C.3     1  UNL1       -0.0359
     24 C           9.4800   -0.7269    0.0000 C.3     1  UNL1        0.0931
     25 C          11.3624    0.2369    0.0000 C.3     1  UNL1       -0.0589
     26 C          13.1307    1.2438    0.0000 C.2     1  UNL1       -0.0836
     27 C          14.3389   -1.1959    0.0000 C.3     1  UNL1       -0.0553
     28 C          14.8656    2.3632    0.0000 C.3     1  UNL1       -0.0403
     29 C          16.7405    1.2998    0.0000 C.3     1  UNL1       -0.0362
     30 C          15.7967    2.9201    0.0000 C.3     1  UNL1       -0.0343
     31 C           9.9146   -3.2223    0.0000 C.3     1  UNL1       -0.0561
     32 C          10.9146   -3.2185    0.0000 C.3     1  UNL1       -0.0561
     33 C          16.7405    2.3848    0.0000 C.3     1  UNL1       -0.0468
     34 C          16.6666    0.2713    0.0000 C.2     1  UNL1        0.3115
     35 C          16.2867    3.7918    0.0000 C.3     1  UNL1       -0.0598
     36 C          15.2868    3.7803    0.0000 C.3     1  UNL1       -0.0598
     37 C           7.7396   -1.8052    0.0000 C.2     1  UNL1        0.3323
     38 C           6.8716   -2.3019    0.0000 C.2     1  UNL1        0.0231
     39 C           6.0075   -1.7985    0.0000 C.2     1  UNL1       -0.0478
     40 C           5.1396   -2.2952    0.0000 C.ar    1  UNL1       -0.0246
     41 C           4.2755   -1.7918    0.0000 C.ar    1  UNL1       -0.0511
     42 C           5.1357   -3.2952    0.0000 C.ar    1  UNL1       -0.0511
     43 C           3.4075   -2.2885    0.0000 C.ar    1  UNL1       -0.0196
     44 C           4.2678   -3.7918    0.0000 C.ar    1  UNL1       -0.0196
     45 C           3.4037   -3.2885    0.0000 C.ar    1  UNL1        0.1169
     46 H          13.0008    0.1688    0.0000 H       1  UNL1        0.0315
     47 H          11.3499   -2.6546    0.0000 H       1  UNL1        0.0312
     48 H          13.3648   -2.3781    0.0000 H       1  UNL1        0.0271
     49 H          13.7559   -1.6822    0.0000 H       1  UNL1        0.0271
     50 H          11.8514   -2.8014    0.0000 H       1  UNL1        0.0268
     51 H          12.6497   -2.7984    0.0000 H       1  UNL1        0.0268
     52 H          10.8361    0.2677    0.0000 H       1  UNL1        0.0297
     53 H          10.0379    0.2831    0.0000 H       1  UNL1        0.0297
     54 H          12.0526    1.3264    0.0000 H       1  UNL1        0.0310
     55 H          11.6541    0.6361    0.0000 H       1  UNL1        0.0310
     56 H          15.6202    1.7148    0.0000 H       1  UNL1        0.0357
     57 H          14.4861   -1.2606    0.0000 H       1  UNL1        0.0274
     58 H          15.2843   -1.2699    0.0000 H       1  UNL1        0.0274
     59 H          13.2985   -1.9208    0.0000 H       1  UNL1        0.0235
     60 H          14.1720   -1.9972    0.0000 H       1  UNL1        0.0235
     61 H          14.2484   -1.1237    0.0000 H       1  UNL1        0.0235
     62 H           9.4704   -2.4319    0.0000 H       1  UNL1        0.0766
     63 H          16.0058   -0.8607    0.0000 H       1  UNL1        0.0276
     64 H          16.4076   -0.1709    0.0000 H       1  UNL1        0.0276
     65 H           8.9401   -1.0317    0.0000 H       1  UNL1        0.0630
     66 H          11.9824    0.2321    0.0000 H       1  UNL1        0.0235
     67 H          11.3672    0.8569    0.0000 H       1  UNL1        0.0235
     68 H          10.7424    0.2417    0.0000 H       1  UNL1        0.0235
     69 H          13.1307    1.8638    0.0000 H       1  UNL1        0.0572
     70 H          13.7563   -1.4080    0.0000 H       1  UNL1        0.0238
     71 H          14.5510   -1.7784    0.0000 H       1  UNL1        0.0238
     72 H          14.9214   -0.9838    0.0000 H       1  UNL1        0.0238
     73 H          14.6431    2.9419    0.0000 H       1  UNL1        0.0276
     74 H          14.2573    2.2430    0.0000 H       1  UNL1        0.0276
     75 H          16.9496    0.7162    0.0000 H       1  UNL1        0.0276
     76 H          17.3514    1.4059    0.0000 H       1  UNL1        0.0276
     77 H          10.3788   -3.5305    0.0000 H       1  UNL1        0.0236
     78 H          11.2266   -3.7542    0.0000 H       1  UNL1        0.0236
     79 H          11.4503   -2.9064    0.0000 H       1  UNL1        0.0236
     80 H           9.3764   -2.9144    0.0000 H       1  UNL1        0.0236
     81 H           9.6066   -3.7604    0.0000 H       1  UNL1        0.0236
     82 H          10.4527   -3.5302    0.0000 H       1  UNL1        0.0236
     83 H          17.3514    2.2788    0.0000 H       1  UNL1        0.0271
     84 H          16.9496    2.9685    0.0000 H       1  UNL1        0.0271
     85 H           8.6270    0.4030    0.0000 H       1  UNL1        0.2099
     86 H          15.8201    4.0965    0.0000 H       1  UNL1        0.0235
     87 H          14.9706    4.3136    0.0000 H       1  UNL1        0.0235
     88 H          14.7534    3.4641    0.0000 H       1  UNL1        0.0235
     89 H          16.8272    3.4881    0.0000 H       1  UNL1        0.0235
     90 H          16.5905    4.3323    0.0000 H       1  UNL1        0.0235
     91 H          15.7462    4.0956    0.0000 H       1  UNL1        0.0235
     92 H          18.0681    0.4721    0.0000 H       1  UNL1        0.2951
     93 H           6.8692   -2.9218    0.0000 H       1  UNL1        0.0689
     94 H           6.0099   -1.1785    0.0000 H       1  UNL1        0.0626
     95 H           4.2779   -1.1718    0.0000 H       1  UNL1        0.0625
     96 H           5.6715   -3.6072    0.0000 H       1  UNL1        0.0625
     97 H           2.8718   -1.9764    0.0000 H       1  UNL1        0.0654
     98 H           4.2654   -4.4118    0.0000 H       1  UNL1        0.0654
     99 H           2.0000   -3.4731    0.0000 H       1  UNL1        0.2921
@<TRIPOS>BOND
     1    22     1    1
     2     1    37    1
     3    24     2    1
     4     2    85    1
     5     3    34    1
     6     3    92    1
     7     4    34    2
     8     5    37    2
     9     6    45    1
    10     6    99    1
    11     7     8    1
    12     7    10    1
    13     7    12    1
    14     7    21    1
    15     8     9    1
    16     8    17    1
    17     8    46    1
    18     9    11    1
    19     9    16    1
    20     9    25    1
    21    10    15    1
    22    10    19    1
    23    10    27    1
    24    11    13    1
    25    11    14    1
    26    11    47    1
    27    12    13    1
    28    12    48    1
    29    12    49    1
    30    13    50    1
    31    13    51    1
    32    14    22    1
    33    14    31    1
    34    14    32    1
    35    15    18    1
    36    15    26    2
    37    16    24    1
    38    16    52    1
    39    16    53    1
    40    17    26    1
    41    17    54    1
    42    17    55    1
    43    18    20    1
    44    18    28    1
    45    18    56    1
    46    19    23    1
    47    19    57    1
    48    19    58    1
    49    20    23    1
    50    20    29    1
    51    20    34    1
    52    21    59    1
    53    21    60    1
    54    21    61    1
    55    22    24    1
    56    22    62    1
    57    23    63    1
    58    23    64    1
    59    24    65    1
    60    25    66    1
    61    25    67    1
    62    25    68    1
    63    26    69    1
    64    27    70    1
    65    27    71    1
    66    27    72    1
    67    28    30    1
    68    28    73    1
    69    28    74    1
    70    29    33    1
    71    29    75    1
    72    29    76    1
    73    30    33    1
    74    30    35    1
    75    30    36    1
    76    31    80    1
    77    31    81    1
    78    31    82    1
    79    32    77    1
    80    32    78    1
    81    32    79    1
    82    33    83    1
    83    33    84    1
    84    35    89    1
    85    35    90    1
    86    35    91    1
    87    36    86    1
    88    36    87    1
    89    36    88    1
    90    37    38    1
    91    38    39    2
    92    38    93    1
    93    39    40    1
    94    39    94    1
    95    40    41   ar
    96    40    42   ar
    97    41    43   ar
    98    41    95    1
    99    42    44   ar
   100    42    96    1
   101    43    45   ar
   102    43    97    1
   103    44    45   ar
   104    44    98    1
