@<TRIPOS>MOLECULE
IMPHY011671
 51 54 0 0 0
SMALL
GASTEIGER

@<TRIPOS>ATOM
      1 O           6.0682   -1.7500    0.0000 O.3     1  UNL1       -0.4800
      2 O           7.8003    0.2500    0.0000 O.3     1  UNL1       -0.4534
      3 O           4.3198    1.2846    0.0000 O.3     1  UNL1       -0.5063
      4 O           2.5381   -1.7742    0.0000 O.3     1  UNL1       -0.5065
      5 O          10.3984   -1.2500    0.0000 O.3     1  UNL1       -0.5032
      6 O           8.6663   -4.2500    0.0000 O.3     1  UNL1       -0.5032
      7 O           6.9343    1.7500    0.0000 O.2     1  UNL1       -0.2449
      8 O          10.3984   -3.2500    0.0000 O.3     1  UNL1       -0.5009
      9 O           9.5323    4.2500    0.0000 O.3     1  UNL1       -0.5032
     10 O          11.2644    1.2500    0.0000 O.3     1  UNL1       -0.5032
     11 O          11.2644    3.2500    0.0000 O.3     1  UNL1       -0.5009
     12 C           6.9343   -0.2500    0.0000 C.3     1  UNL1        0.1483
     13 C           6.9343   -1.2500    0.0000 C.3     1  UNL1        0.1624
     14 C           6.0682    0.2500    0.0000 C.3     1  UNL1        0.0204
     15 C           5.2022   -0.2500    0.0000 C.ar    1  UNL1        0.0395
     16 C           7.8003   -1.7500    0.0000 C.ar    1  UNL1        0.0034
     17 C           5.2022   -1.2500    0.0000 C.ar    1  UNL1        0.1318
     18 C           4.3083    0.2847    0.0000 C.ar    1  UNL1        0.1271
     19 C           4.3083   -1.7847    0.0000 C.ar    1  UNL1        0.0221
     20 C           7.8003   -2.7500    0.0000 C.ar    1  UNL1       -0.0095
     21 C           8.6663   -1.2500    0.0000 C.ar    1  UNL1       -0.0095
     22 C           3.4022   -0.2292    0.0000 C.ar    1  UNL1        0.0218
     23 C           3.4022   -1.2708    0.0000 C.ar    1  UNL1        0.1238
     24 C           7.8003    1.2500    0.0000 C.2     1  UNL1        0.3398
     25 C           9.5323   -1.7500    0.0000 C.ar    1  UNL1        0.1623
     26 C           8.6663   -3.2500    0.0000 C.ar    1  UNL1        0.1623
     27 C           9.5323   -2.7500    0.0000 C.ar    1  UNL1        0.2006
     28 C           8.6663    1.7500    0.0000 C.ar    1  UNL1        0.0661
     29 C           9.5323    1.2500    0.0000 C.ar    1  UNL1       -0.0023
     30 C           8.6663    2.7500    0.0000 C.ar    1  UNL1       -0.0023
     31 C           9.5323    3.2500    0.0000 C.ar    1  UNL1        0.1628
     32 C          10.3984    1.7500    0.0000 C.ar    1  UNL1        0.1628
     33 C          10.3984    2.7500    0.0000 C.ar    1  UNL1        0.2006
     34 H           6.9343    0.3700    0.0000 H       1  UNL1        0.0778
     35 H           6.9343   -1.8700    0.0000 H       1  UNL1        0.0822
     36 H           6.4668    0.7249    0.0000 H       1  UNL1        0.0353
     37 H           5.6697    0.7249    0.0000 H       1  UNL1        0.0353
     38 H           4.3154   -2.4046    0.0000 H       1  UNL1        0.0691
     39 H           7.2634   -3.0600    0.0000 H       1  UNL1        0.0659
     40 H           8.6663   -0.6300    0.0000 H       1  UNL1        0.0659
     41 H           2.8665    0.0829    0.0000 H       1  UNL1        0.0691
     42 H           3.7865    1.6008    0.0000 H       1  UNL1        0.2921
     43 H           2.0000   -1.4662    0.0000 H       1  UNL1        0.2921
     44 H           9.5323    0.6300    0.0000 H       1  UNL1        0.0663
     45 H           8.1294    3.0600    0.0000 H       1  UNL1        0.0663
     46 H          10.9353   -1.5600    0.0000 H       1  UNL1        0.2923
     47 H           8.1294   -4.5600    0.0000 H       1  UNL1        0.2923
     48 H          10.3984   -3.8700    0.0000 H       1  UNL1        0.2924
     49 H           8.9954    4.5600    0.0000 H       1  UNL1        0.2923
     50 H          11.8013    1.5600    0.0000 H       1  UNL1        0.2923
     51 H          11.2644    3.8700    0.0000 H       1  UNL1        0.2924
@<TRIPOS>BOND
     1     1    13    1
     2     1    17    1
     3    12     2    1
     4     2    24    1
     5     3    18    1
     6     3    42    1
     7     4    23    1
     8     4    43    1
     9     5    25    1
    10     5    46    1
    11     6    26    1
    12     6    47    1
    13     7    24    2
    14     8    27    1
    15     8    48    1
    16     9    31    1
    17     9    49    1
    18    10    32    1
    19    10    50    1
    20    11    33    1
    21    11    51    1
    22    12    13    1
    23    12    14    1
    24    12    34    1
    25    13    16    1
    26    13    35    1
    27    14    15    1
    28    14    36    1
    29    14    37    1
    30    15    17   ar
    31    15    18   ar
    32    16    20   ar
    33    16    21   ar
    34    17    19   ar
    35    18    22   ar
    36    19    23   ar
    37    19    38    1
    38    20    26   ar
    39    20    39    1
    40    21    25   ar
    41    21    40    1
    42    22    23   ar
    43    22    41    1
    44    24    28    1
    45    25    27   ar
    46    26    27   ar
    47    28    29   ar
    48    28    30   ar
    49    29    32   ar
    50    29    44    1
    51    30    31   ar
    52    30    45    1
    53    31    33   ar
    54    32    33   ar
