@<TRIPOS>MOLECULE
IMPHY016450
 21 22 0 0 0
SMALL
GASTEIGER

@<TRIPOS>ATOM
      1 O           4.6783   -0.8047    0.0000 O.2     1  UNL1       -0.4626
      2 C           3.7320    0.5000    0.0000 C.ar    1  UNL1        0.0233
      3 C           3.7320   -0.5000    0.0000 C.ar    1  UNL1        0.1379
      4 C           2.8660    1.0000    0.0000 C.ar    1  UNL1       -0.0397
      5 C           2.8660   -1.0000    0.0000 C.ar    1  UNL1       -0.0076
      6 C           2.0000    0.5000    0.0000 C.ar    1  UNL1       -0.0578
      7 C           2.0000   -0.5000    0.0000 C.ar    1  UNL1       -0.0551
      8 C           4.6783    0.8047    0.0000 C.ar    1  UNL1       -0.0159
      9 C           2.8660    2.0000    0.0000 C.3     1  UNL1       -0.0390
     10 C           2.8660   -2.0000    0.0000 C.3     1  UNL1       -0.0362
     11 C           5.2619    0.0000    0.0000 C.ar    1  UNL1        0.0932
     12 H           1.4631    0.8100    0.0000 H       1  UNL1        0.0620
     13 H           1.4631   -0.8100    0.0000 H       1  UNL1        0.0621
     14 H           4.8709    1.3940    0.0000 H       1  UNL1        0.0655
     15 H           3.4860    2.0000    0.0000 H       1  UNL1        0.0278
     16 H           2.8660    2.6200    0.0000 H       1  UNL1        0.0278
     17 H           2.2460    2.0000    0.0000 H       1  UNL1        0.0278
     18 H           2.2460   -2.0000    0.0000 H       1  UNL1        0.0279
     19 H           2.8660   -2.6200    0.0000 H       1  UNL1        0.0279
     20 H           3.4860   -2.0000    0.0000 H       1  UNL1        0.0279
     21 H           5.8819    0.0000    0.0000 H       1  UNL1        0.1030
@<TRIPOS>BOND
     1     1     3   ar
     2     1    11   ar
     3     2     3   ar
     4     2     4   ar
     5     2     8   ar
     6     3     5   ar
     7     4     6   ar
     8     4     9    1
     9     5     7   ar
    10     5    10    1
    11     6     7   ar
    12     6    12    1
    13     7    13    1
    14     8    11   ar
    15     8    14    1
    16     9    15    1
    17     9    16    1
    18     9    17    1
    19    10    18    1
    20    10    19    1
    21    10    20    1
    22    11    21    1
