@<TRIPOS>MOLECULE
IMPHY002934
 36 36 0 0 0
SMALL
GASTEIGER

@<TRIPOS>ATOM
      1 O           3.7320   -0.5000    0.0000 O.3     1  UNL1       -0.4581
      2 O           2.0000   -0.5000    0.0000 O.2     1  UNL1       -0.2450
      3 C           4.5981    1.0000    0.0000 C.3     1  UNL1       -0.0159
      4 C           4.5981    2.0000    0.0000 C.3     1  UNL1       -0.0497
      5 C           3.7320    0.5000    0.0000 C.3     1  UNL1        0.1006
      6 C           5.4641    2.5000    0.0000 C.3     1  UNL1       -0.0532
      7 C           5.4641    3.5000    0.0000 C.3     1  UNL1       -0.0559
      8 C           2.8660    1.0000    0.0000 C.3     1  UNL1       -0.0277
      9 C           6.3301    4.0000    0.0000 C.3     1  UNL1       -0.0653
     10 C           2.8660   -1.0000    0.0000 C.2     1  UNL1        0.3394
     11 C           2.8660   -2.0000    0.0000 C.ar    1  UNL1        0.0590
     12 C           2.0000   -2.5000    0.0000 C.ar    1  UNL1       -0.0478
     13 C           3.7320   -2.5000    0.0000 C.ar    1  UNL1       -0.0478
     14 C           2.0000   -3.5000    0.0000 C.ar    1  UNL1       -0.0610
     15 C           3.7320   -3.5000    0.0000 C.ar    1  UNL1       -0.0610
     16 C           2.8660   -4.0000    0.0000 C.ar    1  UNL1       -0.0617
     17 H           4.8101    0.4174    0.0000 H       1  UNL1        0.0301
     18 H           5.2087    1.1077    0.0000 H       1  UNL1        0.0301
     19 H           4.3860    2.5826    0.0000 H       1  UNL1        0.0266
     20 H           3.9875    1.8923    0.0000 H       1  UNL1        0.0266
     21 H           4.2690    0.1900    0.0000 H       1  UNL1        0.0731
     22 H           5.6762    1.9174    0.0000 H       1  UNL1        0.0265
     23 H           6.0747    2.6077    0.0000 H       1  UNL1        0.0265
     24 H           5.2520    4.0826    0.0000 H       1  UNL1        0.0263
     25 H           4.8535    3.3923    0.0000 H       1  UNL1        0.0263
     26 H           3.1760    1.5369    0.0000 H       1  UNL1        0.0265
     27 H           2.3291    1.3100    0.0000 H       1  UNL1        0.0265
     28 H           2.5560    0.4631    0.0000 H       1  UNL1        0.0265
     29 H           6.6401    3.4631    0.0000 H       1  UNL1        0.0230
     30 H           6.8671    4.3100    0.0000 H       1  UNL1        0.0230
     31 H           6.0201    4.5369    0.0000 H       1  UNL1        0.0230
     32 H           1.4631   -2.1900    0.0000 H       1  UNL1        0.0626
     33 H           4.2690   -2.1900    0.0000 H       1  UNL1        0.0626
     34 H           1.4631   -3.8100    0.0000 H       1  UNL1        0.0618
     35 H           4.2690   -3.8100    0.0000 H       1  UNL1        0.0618
     36 H           2.8660   -4.6200    0.0000 H       1  UNL1        0.0618
@<TRIPOS>BOND
     1     1     5    1
     2     1    10    1
     3     2    10    2
     4     3     4    1
     5     3     5    1
     6     3    17    1
     7     3    18    1
     8     4     6    1
     9     4    19    1
    10     4    20    1
    11     5     8    1
    12     5    21    1
    13     6     7    1
    14     6    22    1
    15     6    23    1
    16     7     9    1
    17     7    24    1
    18     7    25    1
    19     8    26    1
    20     8    27    1
    21     8    28    1
    22     9    29    1
    23     9    30    1
    24     9    31    1
    25    10    11    1
    26    11    12   ar
    27    11    13   ar
    28    12    14   ar
    29    12    32    1
    30    13    15   ar
    31    13    33    1
    32    14    16   ar
    33    14    34    1
    34    15    16   ar
    35    15    35    1
    36    16    36    1
