@<TRIPOS>MOLECULE
IMPHY003126
 54 54 0 0 0
SMALL
GASTEIGER

@<TRIPOS>ATOM
      1 O           7.7331    1.5000    0.0000 O.2     1  UNL1       -0.2758
      2 O           4.2690    5.5000    0.0000 O.3     1  UNL1       -0.4914
      3 O           2.5369    4.5000    0.0000 O.3     1  UNL1       -0.5033
      4 N           6.0010    1.5000    0.0000 N.am    1  UNL1       -0.3112
      5 C           9.4651   -3.5000    0.0000 C.3     1  UNL1       -0.0528
      6 C           8.5991   -3.0000    0.0000 C.3     1  UNL1       -0.0530
      7 C           9.4651   -4.5000    0.0000 C.3     1  UNL1       -0.0507
      8 C           8.5991   -2.0000    0.0000 C.3     1  UNL1       -0.0530
      9 C          10.3312   -5.0000    0.0000 C.3     1  UNL1       -0.0467
     10 C           7.7331   -1.5000    0.0000 C.3     1  UNL1       -0.0526
     11 C           7.7331   -0.5000    0.0000 C.3     1  UNL1       -0.0448
     12 C          10.3312   -6.0000    0.0000 C.3     1  UNL1       -0.0627
     13 C          11.1972   -4.5000    0.0000 C.3     1  UNL1       -0.0627
     14 C           6.8671    0.0000    0.0000 C.3     1  UNL1        0.0240
     15 C           6.8671    1.0000    0.0000 C.2     1  UNL1        0.2133
     16 C           6.0010    2.5000    0.0000 C.3     1  UNL1        0.0369
     17 C           5.1350    3.0000    0.0000 C.ar    1  UNL1       -0.0266
     18 C           5.1350    4.0000    0.0000 C.ar    1  UNL1       -0.0116
     19 C           4.2690    2.5000    0.0000 C.ar    1  UNL1       -0.0534
     20 C           4.2690    4.5000    0.0000 C.ar    1  UNL1        0.1616
     21 C           3.4030    3.0000    0.0000 C.ar    1  UNL1       -0.0162
     22 C           3.4030    4.0000    0.0000 C.ar    1  UNL1        0.1585
     23 C           5.1350    6.0000    0.0000 C.3     1  UNL1        0.0790
     24 H          10.0757   -3.6077    0.0000 H       1  UNL1        0.0265
     25 H           9.6772   -2.9174    0.0000 H       1  UNL1        0.0265
     26 H           7.9885   -2.8923    0.0000 H       1  UNL1        0.0265
     27 H           8.3871   -3.5826    0.0000 H       1  UNL1        0.0265
     28 H           8.8546   -4.3923    0.0000 H       1  UNL1        0.0268
     29 H           9.2531   -5.0826    0.0000 H       1  UNL1        0.0268
     30 H           9.2097   -2.1077    0.0000 H       1  UNL1        0.0265
     31 H           8.8112   -1.4174    0.0000 H       1  UNL1        0.0265
     32 H          10.8681   -5.3100    0.0000 H       1  UNL1        0.0295
     33 H           7.1225   -1.3923    0.0000 H       1  UNL1        0.0265
     34 H           7.5210   -2.0826    0.0000 H       1  UNL1        0.0265
     35 H           8.3437   -0.6077    0.0000 H       1  UNL1        0.0270
     36 H           7.9451    0.0826    0.0000 H       1  UNL1        0.0270
     37 H           9.7112   -6.0000    0.0000 H       1  UNL1        0.0232
     38 H          10.3312   -6.6200    0.0000 H       1  UNL1        0.0232
     39 H          10.9512   -6.0000    0.0000 H       1  UNL1        0.0232
     40 H          11.5072   -5.0369    0.0000 H       1  UNL1        0.0232
     41 H          11.7341   -4.1900    0.0000 H       1  UNL1        0.0232
     42 H          10.8872   -3.9631    0.0000 H       1  UNL1        0.0232
     43 H           6.2565    0.1077    0.0000 H       1  UNL1        0.0358
     44 H           6.6550   -0.5826    0.0000 H       1  UNL1        0.0358
     45 H           5.4641    1.1900    0.0000 H       1  UNL1        0.1490
     46 H           6.6116    2.3923    0.0000 H       1  UNL1        0.0512
     47 H           6.2131    3.0826    0.0000 H       1  UNL1        0.0512
     48 H           5.6720    4.3100    0.0000 H       1  UNL1        0.0658
     49 H           4.2690    1.8800    0.0000 H       1  UNL1        0.0622
     50 H           2.8660    2.6900    0.0000 H       1  UNL1        0.0655
     51 H           2.0000    4.1900    0.0000 H       1  UNL1        0.2923
     52 H           5.4450    5.4631    0.0000 H       1  UNL1        0.0660
     53 H           5.6720    6.3100    0.0000 H       1  UNL1        0.0660
     54 H           4.8250    6.5369    0.0000 H       1  UNL1        0.0660
@<TRIPOS>BOND
     1     1    15    2
     2     2    20    1
     3     2    23    1
     4     3    22    1
     5     3    51    1
     6     4    15   am
     7     4    16    1
     8     4    45    1
     9     5     6    1
    10     5     7    1
    11     5    24    1
    12     5    25    1
    13     6     8    1
    14     6    26    1
    15     6    27    1
    16     7     9    1
    17     7    28    1
    18     7    29    1
    19     8    10    1
    20     8    30    1
    21     8    31    1
    22     9    12    1
    23     9    13    1
    24     9    32    1
    25    10    11    1
    26    10    33    1
    27    10    34    1
    28    11    14    1
    29    11    35    1
    30    11    36    1
    31    12    37    1
    32    12    38    1
    33    12    39    1
    34    13    40    1
    35    13    41    1
    36    13    42    1
    37    14    15    1
    38    14    43    1
    39    14    44    1
    40    16    17    1
    41    16    46    1
    42    16    47    1
    43    17    18   ar
    44    17    19   ar
    45    18    20   ar
    46    18    48    1
    47    19    21   ar
    48    19    49    1
    49    20    22   ar
    50    21    22   ar
    51    21    50    1
    52    23    52    1
    53    23    53    1
    54    23    54    1
