@<TRIPOS>MOLECULE
IMPHY001534
 82 87 0 0 0
SMALL
GASTEIGER

@<TRIPOS>ATOM
      1 O           5.9582    1.5728    0.0000 O.3     1  UNL1       -0.3476
      2 O           5.1082    3.1143    0.0000 O.3     1  UNL1       -0.3409
      3 O           2.3162    2.0680    0.0000 O.3     1  UNL1       -0.3883
      4 O           4.1884   -5.8266    0.0000 O.3     1  UNL1       -0.3912
      5 C           5.0922    0.0728    0.0000 C.3     1  UNL1        0.0081
      6 C           5.1082   -0.9687    0.0000 C.3     1  UNL1       -0.0206
      7 C           4.2261    0.5728    0.0000 C.3     1  UNL1       -0.0223
      8 C           4.2102   -1.4965    0.0000 C.3     1  UNL1       -0.0294
      9 C           4.2261    1.5728    0.0000 C.3     1  UNL1        0.0452
     10 C           5.0922    2.0728    0.0000 C.3     1  UNL1        0.1770
     11 C           4.7261    1.0728    0.0000 C.3     1  UNL1        0.0103
     12 C           4.2018   -2.5815    0.0000 C.3     1  UNL1       -0.0252
     13 C           5.9582    0.5728    0.0000 C.3     1  UNL1        0.0575
     14 C           3.3161    0.0659    0.0000 C.3     1  UNL1       -0.0488
     15 C           6.0601   -1.4894    0.0000 C.3     1  UNL1       -0.0465
     16 C           5.1414   -3.1240    0.0000 C.3     1  UNL1       -0.0278
     17 C           3.3081   -0.9757    0.0000 C.3     1  UNL1       -0.0489
     18 C           3.3161    2.0796    0.0000 C.3     1  UNL1        0.0739
     19 C           6.0769   -2.5742    0.0000 C.3     1  UNL1       -0.0486
     20 C           5.9704   -0.4621    0.0000 C.3     1  UNL1       -0.0587
     21 C           5.1589   -4.2540    0.0000 C.3     1  UNL1       -0.0056
     22 C           3.2145   -3.1314    0.0000 C.3     1  UNL1       -0.0447
     23 C           3.3358   -2.0815    0.0000 C.3     1  UNL1       -0.0590
     24 C           3.3081    3.1212    0.0000 C.3     1  UNL1        0.0063
     25 C           4.1845   -4.8266    0.0000 C.3     1  UNL1        0.0606
     26 C           3.2058   -4.2615    0.0000 C.3     1  UNL1       -0.0258
     27 C           4.2102    3.6420    0.0000 C.3     1  UNL1        0.0829
     28 C           2.8262    1.2078    0.0000 C.3     1  UNL1       -0.0355
     29 C           5.6688   -5.1142    0.0000 C.3     1  UNL1       -0.0572
     30 C           6.1588   -4.2424    0.0000 C.3     1  UNL1       -0.0572
     31 C           4.2140    4.6420    0.0000 C.2     1  UNL1       -0.0567
     32 C           5.0820    5.1387    0.0000 C.2     1  UNL1       -0.0772
     33 C           5.0858    6.1387    0.0000 C.3     1  UNL1       -0.0440
     34 C           5.9461    4.6353    0.0000 C.3     1  UNL1       -0.0440
     35 H           3.3890    0.7204    0.0000 H       1  UNL1        0.0312
     36 H           3.4724   -1.9187    0.0000 H       1  UNL1        0.0312
     37 H           3.3890    1.4252    0.0000 H       1  UNL1        0.0384
     38 H           4.2290    1.4433    0.0000 H       1  UNL1        0.0323
     39 H           4.2290    0.7022    0.0000 H       1  UNL1        0.0323
     40 H           6.1702   -0.0099    0.0000 H       1  UNL1        0.0567
     41 H           6.5688    0.6804    0.0000 H       1  UNL1        0.0567
     42 H           3.1116    0.6512    0.0000 H       1  UNL1        0.0268
     43 H           2.7045   -0.0355    0.0000 H       1  UNL1        0.0268
     44 H           6.6726   -1.5860    0.0000 H       1  UNL1        0.0271
     45 H           6.2602   -0.9025    0.0000 H       1  UNL1        0.0271
     46 H           5.8824   -3.5404    0.0000 H       1  UNL1        0.0312
     47 H           2.6981   -0.8649    0.0000 H       1  UNL1        0.0268
     48 H           3.0945   -1.5578    0.0000 H       1  UNL1        0.0268
     49 H           6.2949   -3.1546    0.0000 H       1  UNL1        0.0268
     50 H           6.6860   -2.4587    0.0000 H       1  UNL1        0.0268
     51 H           6.2845   -0.9966    0.0000 H       1  UNL1        0.0235
     52 H           6.5049   -0.1480    0.0000 H       1  UNL1        0.0235
     53 H           5.6562    0.0724    0.0000 H       1  UNL1        0.0235
     54 H           3.0099   -2.5461    0.0000 H       1  UNL1        0.0271
     55 H           2.6028   -3.2328    0.0000 H       1  UNL1        0.0271
     56 H           3.6458   -1.5445    0.0000 H       1  UNL1        0.0235
     57 H           2.7988   -1.7715    0.0000 H       1  UNL1        0.0235
     58 H           3.0258   -2.6184    0.0000 H       1  UNL1        0.0235
     59 H           3.0945    3.7033    0.0000 H       1  UNL1        0.0321
     60 H           2.6981    3.0104    0.0000 H       1  UNL1        0.0321
     61 H           4.7232   -5.1335    0.0000 H       1  UNL1        0.0599
     62 H           2.5957   -4.1507    0.0000 H       1  UNL1        0.0290
     63 H           2.9922   -4.8436    0.0000 H       1  UNL1        0.0290
     64 H           4.7489    3.9489    0.0000 H       1  UNL1        0.0642
     65 H           2.2857    1.5116    0.0000 H       1  UNL1        0.0257
     66 H           2.5224    0.6674    0.0000 H       1  UNL1        0.0257
     67 H           3.3666    0.9041    0.0000 H       1  UNL1        0.0257
     68 H           5.1355   -5.4304    0.0000 H       1  UNL1        0.0236
     69 H           5.9850   -5.6475    0.0000 H       1  UNL1        0.0236
     70 H           6.2022   -4.7980    0.0000 H       1  UNL1        0.0236
     71 H           6.1660   -4.8624    0.0000 H       1  UNL1        0.0236
     72 H           6.7788   -4.2353    0.0000 H       1  UNL1        0.0236
     73 H           6.1516   -3.6225    0.0000 H       1  UNL1        0.0236
     74 H           2.0000    2.6014    0.0000 H       1  UNL1        0.2102
     75 H           3.6783    4.9541    0.0000 H       1  UNL1        0.0597
     76 H           3.6526   -6.1387    0.0000 H       1  UNL1        0.2098
     77 H           5.6340    4.0996    0.0000 H       1  UNL1        0.0274
     78 H           6.4818    4.3233    0.0000 H       1  UNL1        0.0274
     79 H           6.2581    5.1711    0.0000 H       1  UNL1        0.0274
     80 H           5.7058    6.1363    0.0000 H       1  UNL1        0.0274
     81 H           5.0882    6.7587    0.0000 H       1  UNL1        0.0274
     82 H           4.4658    6.1410    0.0000 H       1  UNL1        0.0274
@<TRIPOS>BOND
     1     1    10    1
     2     1    13    1
     3    10     2    1
     4     2    27    1
     5    18     3    1
     6     3    74    1
     7    25     4    1
     8     4    76    1
     9     5     6    1
    10     5     7    1
    11     5    11    1
    12     5    13    1
    13     6     8    1
    14     6    15    1
    15     6    20    1
    16     7     9    1
    17     7    14    1
    18     7    35    1
    19     8    12    1
    20     8    17    1
    21     8    36    1
    22     9    10    1
    23     9    18    1
    24     9    37    1
    25    10    11    1
    26    11    38    1
    27    11    39    1
    28    12    16    1
    29    12    22    1
    30    12    23    1
    31    13    40    1
    32    13    41    1
    33    14    17    1
    34    14    42    1
    35    14    43    1
    36    15    19    1
    37    15    44    1
    38    15    45    1
    39    16    19    1
    40    16    21    1
    41    16    46    1
    42    17    47    1
    43    17    48    1
    44    18    24    1
    45    18    28    1
    46    19    49    1
    47    19    50    1
    48    20    51    1
    49    20    52    1
    50    20    53    1
    51    21    25    1
    52    21    29    1
    53    21    30    1
    54    22    26    1
    55    22    54    1
    56    22    55    1
    57    23    56    1
    58    23    57    1
    59    23    58    1
    60    24    27    1
    61    24    59    1
    62    24    60    1
    63    25    26    1
    64    25    61    1
    65    26    62    1
    66    26    63    1
    67    27    31    1
    68    27    64    1
    69    28    65    1
    70    28    66    1
    71    28    67    1
    72    29    68    1
    73    29    69    1
    74    29    70    1
    75    30    71    1
    76    30    72    1
    77    30    73    1
    78    31    32    2
    79    31    75    1
    80    32    33    1
    81    32    34    1
    82    33    80    1
    83    33    81    1
    84    33    82    1
    85    34    77    1
    86    34    78    1
    87    34    79    1
