@<TRIPOS>MOLECULE
IMPHY000879
 35 36 0 0 0
SMALL
GASTEIGER

@<TRIPOS>ATOM
      1 O           6.3580    0.4480    0.0000 O.2     1  UNL1       -0.4217
      2 O           2.8660    0.4827    0.0000 O.3     1  UNL1       -0.4947
      3 O           2.8660   -0.5173    0.0000 O.2     1  UNL1       -0.2968
      4 O           8.1282    0.4585    0.0000 O.2     1  UNL1       -0.2452
      5 C           4.5981   -0.5173    0.0000 C.3     1  UNL1        0.0382
      6 C           3.7320   -2.0173    0.0000 C.3     1  UNL1        0.0122
      7 C           4.5981    0.4827    0.0000 C.ar    1  UNL1        0.0442
      8 C           3.7320   -1.0173    0.0000 C.2     1  UNL1        0.1404
      9 C           5.4641    0.9827    0.0000 C.ar    1  UNL1        0.1461
     10 C           3.7320    0.9827    0.0000 C.ar    1  UNL1        0.1272
     11 C           5.4641    1.9827    0.0000 C.ar    1  UNL1        0.0181
     12 C           2.8660   -2.5173    0.0000 C.3     1  UNL1       -0.0559
     13 C           4.5981   -2.5173    0.0000 C.3     1  UNL1       -0.0559
     14 C           3.7320    1.9827    0.0000 C.ar    1  UNL1       -0.0189
     15 C           4.5981    2.4827    0.0000 C.ar    1  UNL1       -0.0476
     16 C           6.3580    2.5173    0.0000 C.ar    1  UNL1       -0.0443
     17 C           7.2641    2.0035    0.0000 C.ar    1  UNL1        0.0236
     18 C           7.2641    0.9619    0.0000 C.ar    1  UNL1        0.3372
     19 C           2.0000    0.9827    0.0000 C.3     1  UNL1        0.0788
     20 H           4.8101   -1.0999    0.0000 H       1  UNL1        0.0392
     21 H           5.2087   -0.4097    0.0000 H       1  UNL1        0.0392
     22 H           3.7320   -2.6373    0.0000 H       1  UNL1        0.0372
     23 H           4.2881   -3.0543    0.0000 H       1  UNL1        0.0236
     24 H           5.1350   -2.8273    0.0000 H       1  UNL1        0.0236
     25 H           2.5560   -1.9804    0.0000 H       1  UNL1        0.0236
     26 H           2.3291   -2.8273    0.0000 H       1  UNL1        0.0236
     27 H           3.1760   -3.0543    0.0000 H       1  UNL1        0.0236
     28 H           4.9081   -1.9804    0.0000 H       1  UNL1        0.0236
     29 H           3.1951    2.2927    0.0000 H       1  UNL1        0.0654
     30 H           4.5981    3.1027    0.0000 H       1  UNL1        0.0626
     31 H           6.3509    3.1373    0.0000 H       1  UNL1        0.0627
     32 H           7.7998    2.3156    0.0000 H       1  UNL1        0.0689
     33 H           2.3100    1.5196    0.0000 H       1  UNL1        0.0660
     34 H           1.4631    1.2927    0.0000 H       1  UNL1        0.0660
     35 H           1.6900    0.4457    0.0000 H       1  UNL1        0.0660
@<TRIPOS>BOND
     1     1     9   ar
     2     1    18   ar
     3     2    10    1
     4     2    19    1
     5     3     8    2
     6     4    18    2
     7     5     7    1
     8     5     8    1
     9     5    20    1
    10     5    21    1
    11     6     8    1
    12     6    12    1
    13     6    13    1
    14     6    22    1
    15     7     9   ar
    16     7    10   ar
    17     9    11   ar
    18    10    14   ar
    19    11    15   ar
    20    11    16   ar
    21    12    25    1
    22    12    26    1
    23    12    27    1
    24    13    23    1
    25    13    24    1
    26    13    28    1
    27    14    15   ar
    28    14    29    1
    29    15    30    1
    30    16    17   ar
    31    16    31    1
    32    17    18   ar
    33    17    32    1
    34    19    33    1
    35    19    34    1
    36    19    35    1
