@<TRIPOS>MOLECULE
IMPHY003030
 107 108 0 0 0
SMALL
GASTEIGER

@<TRIPOS>ATOM
      1 O           8.9282   -1.7194    0.0000 O.2     1  UNL1       -0.5029
      2 O           9.8498    3.5073    0.0000 O.2     1  UNL1       -0.5029
      3 O           5.4641    0.2806    0.0000 O.2     1  UNL1       -0.5029
      4 O           5.9106    2.8127    0.0000 O.2     1  UNL1       -0.5029
      5 O           5.4641   -1.7194    0.0000 O.2     1  UNL1       -0.2836
      6 O           6.5946    4.6921    0.0000 O.2     1  UNL1       -0.2836
      7 O           8.9282    0.2806    0.0000 O.2     1  UNL1       -0.2836
      8 O           9.1658    1.6279    0.0000 O.2     1  UNL1       -0.2836
      9 C           4.5981   -6.2194    0.0000 C.3     1  UNL1       -0.0531
     10 C          12.2027    7.4397    0.0000 C.3     1  UNL1       -0.0531
     11 C           5.4641   -5.7194    0.0000 C.3     1  UNL1       -0.0531
     12 C          11.2179    7.2660    0.0000 C.3     1  UNL1       -0.0531
     13 C           4.5981   -7.2194    0.0000 C.3     1  UNL1       -0.0531
     14 C          12.5447    8.3794    0.0000 C.3     1  UNL1       -0.0531
     15 C           5.4641   -4.7194    0.0000 C.3     1  UNL1       -0.0530
     16 C          10.8759    6.3264    0.0000 C.3     1  UNL1       -0.0530
     17 C           3.7320   -7.7194    0.0000 C.3     1  UNL1       -0.0531
     18 C          13.5295    8.5530    0.0000 C.3     1  UNL1       -0.0531
     19 C           6.3301   -4.2194    0.0000 C.3     1  UNL1       -0.0528
     20 C           9.8911    6.1527    0.0000 C.3     1  UNL1       -0.0528
     21 C           3.7320   -8.7194    0.0000 C.3     1  UNL1       -0.0531
     22 C          13.8715    9.4927    0.0000 C.3     1  UNL1       -0.0531
     23 C           6.3301   -3.2194    0.0000 C.3     1  UNL1       -0.0488
     24 C           9.5490    5.2130    0.0000 C.3     1  UNL1       -0.0488
     25 C           2.8660   -9.2194    0.0000 C.3     1  UNL1       -0.0531
     26 C          14.8564    9.6664    0.0000 C.3     1  UNL1       -0.0531
     27 C           7.1962   -2.7194    0.0000 C.3     1  UNL1       -0.0203
     28 C           8.5642    5.0394    0.0000 C.3     1  UNL1       -0.0203
     29 C           2.8660  -10.2194    0.0000 C.3     1  UNL1       -0.0533
     30 C          15.1984   10.6061    0.0000 C.3     1  UNL1       -0.0533
     31 C           7.1962   -1.7194    0.0000 C.2     1  UNL1        0.0481
     32 C           8.2222    4.0997    0.0000 C.2     1  UNL1        0.0481
     33 C           2.0000  -10.7194    0.0000 C.3     1  UNL1       -0.0559
     34 C          16.1832   10.7797    0.0000 C.3     1  UNL1       -0.0559
     35 C           7.1962    1.2806    0.0000 C.3     1  UNL1        0.0123
     36 C           7.1962    0.2806    0.0000 C.2     1  UNL1        0.0526
     37 C           7.5382    2.2203    0.0000 C.2     1  UNL1        0.0526
     38 C           8.0622   -1.2194    0.0000 C.2     1  UNL1        0.1710
     39 C           8.8650    3.3336    0.0000 C.2     1  UNL1        0.1710
     40 C           6.3301   -1.2194    0.0000 C.2     1  UNL1        0.2271
     41 C           7.2374    3.9260    0.0000 C.2     1  UNL1        0.2271
     42 C           6.3301   -0.2194    0.0000 C.2     1  UNL1        0.1713
     43 C           6.8954    2.9863    0.0000 C.2     1  UNL1        0.1713
     44 C           8.0622   -0.2194    0.0000 C.2     1  UNL1        0.2275
     45 C           8.5230    2.3939    0.0000 C.2     1  UNL1        0.2275
     46 C           2.0000  -11.7194    0.0000 C.3     1  UNL1       -0.0653
     47 C          16.5252   11.7194    0.0000 C.3     1  UNL1       -0.0653
     48 H           4.3860   -5.6368    0.0000 H       1  UNL1        0.0265
     49 H           3.9875   -6.3271    0.0000 H       1  UNL1        0.0265
     50 H          12.2027    6.8197    0.0000 H       1  UNL1        0.0265
     51 H          12.8133    7.3320    0.0000 H       1  UNL1        0.0265
     52 H          11.2179    7.8860    0.0000 H       1  UNL1        0.0265
     53 H          10.6073    7.3737    0.0000 H       1  UNL1        0.0265
     54 H           5.6762   -6.3020    0.0000 H       1  UNL1        0.0265
     55 H           6.0747   -5.6118    0.0000 H       1  UNL1        0.0265
     56 H           4.8101   -7.8020    0.0000 H       1  UNL1        0.0265
     57 H           5.2087   -7.1118    0.0000 H       1  UNL1        0.0265
     58 H          12.5447    8.9994    0.0000 H       1  UNL1        0.0265
     59 H          11.9341    8.4870    0.0000 H       1  UNL1        0.0265
     60 H          10.8759    5.7063    0.0000 H       1  UNL1        0.0265
     61 H          11.4864    6.2187    0.0000 H       1  UNL1        0.0265
     62 H           5.2520   -4.1368    0.0000 H       1  UNL1        0.0265
     63 H           4.8535   -4.8271    0.0000 H       1  UNL1        0.0265
     64 H          13.5295    7.9330    0.0000 H       1  UNL1        0.0265
     65 H          14.1401    8.4454    0.0000 H       1  UNL1        0.0265
     66 H           3.5200   -7.1368    0.0000 H       1  UNL1        0.0265
     67 H           3.1215   -7.8271    0.0000 H       1  UNL1        0.0265
     68 H           9.8911    6.7727    0.0000 H       1  UNL1        0.0265
     69 H           9.2805    6.2604    0.0000 H       1  UNL1        0.0265
     70 H           6.5422   -4.8020    0.0000 H       1  UNL1        0.0265
     71 H           6.9407   -4.1118    0.0000 H       1  UNL1        0.0265
     72 H          13.8715   10.1127    0.0000 H       1  UNL1        0.0265
     73 H          13.2610    9.6004    0.0000 H       1  UNL1        0.0265
     74 H           3.9441   -9.3020    0.0000 H       1  UNL1        0.0265
     75 H           4.3426   -8.6118    0.0000 H       1  UNL1        0.0265
     76 H           9.5490    4.5930    0.0000 H       1  UNL1        0.0268
     77 H          10.1596    5.1053    0.0000 H       1  UNL1        0.0268
     78 H           6.1181   -2.6368    0.0000 H       1  UNL1        0.0268
     79 H           5.7196   -3.3271    0.0000 H       1  UNL1        0.0268
     80 H          14.8564    9.0464    0.0000 H       1  UNL1        0.0265
     81 H          15.4669    9.5587    0.0000 H       1  UNL1        0.0265
     82 H           2.6540   -8.6368    0.0000 H       1  UNL1        0.0265
     83 H           2.2554   -9.3271    0.0000 H       1  UNL1        0.0265
     84 H           7.4082   -3.3020    0.0000 H       1  UNL1        0.0316
     85 H           7.8067   -2.6117    0.0000 H       1  UNL1        0.0316
     86 H           8.5642    5.6594    0.0000 H       1  UNL1        0.0316
     87 H           7.9536    5.1470    0.0000 H       1  UNL1        0.0316
     88 H          15.1984   11.2261    0.0000 H       1  UNL1        0.0265
     89 H          14.5878   10.7137    0.0000 H       1  UNL1        0.0265
     90 H           3.0781  -10.8020    0.0000 H       1  UNL1        0.0265
     91 H           3.4766  -10.1117    0.0000 H       1  UNL1        0.0265
     92 H           1.7880  -10.1368    0.0000 H       1  UNL1        0.0263
     93 H           1.3894  -10.8271    0.0000 H       1  UNL1        0.0263
     94 H          16.1832   10.1597    0.0000 H       1  UNL1        0.0263
     95 H          16.7938   10.6721    0.0000 H       1  UNL1        0.0263
     96 H           6.7452    1.7061    0.0000 H       1  UNL1        0.0366
     97 H           7.8067    1.1729    0.0000 H       1  UNL1        0.0366
     98 H          17.1078   11.5074    0.0000 H       1  UNL1        0.0230
     99 H          16.7373   12.3020    0.0000 H       1  UNL1        0.0230
    100 H          15.9426   11.9315    0.0000 H       1  UNL1        0.0230
    101 H           1.3800  -11.7194    0.0000 H       1  UNL1        0.0230
    102 H           2.0000  -12.3394    0.0000 H       1  UNL1        0.0230
    103 H           2.6200  -11.7194    0.0000 H       1  UNL1        0.0230
    104 H           8.9282   -2.3394    0.0000 H       1  UNL1        0.2923
    105 H          10.2483    3.0323    0.0000 H       1  UNL1        0.2923
    106 H           4.9272   -0.0294    0.0000 H       1  UNL1        0.2923
    107 H           5.5120    3.2876    0.0000 H       1  UNL1        0.2923
@<TRIPOS>BOND
     1     1    38    1
     2     1   104    1
     3     2    39    1
     4     2   105    1
     5     3    42    1
     6     3   106    1
     7     4    43    1
     8     4   107    1
     9     5    40    2
    10     6    41    2
    11     7    44    2
    12     8    45    2
    13     9    11    1
    14     9    13    1
    15     9    48    1
    16     9    49    1
    17    10    12    1
    18    10    14    1
    19    10    50    1
    20    10    51    1
    21    11    15    1
    22    11    54    1
    23    11    55    1
    24    12    16    1
    25    12    52    1
    26    12    53    1
    27    13    17    1
    28    13    56    1
    29    13    57    1
    30    14    18    1
    31    14    58    1
    32    14    59    1
    33    15    19    1
    34    15    62    1
    35    15    63    1
    36    16    20    1
    37    16    60    1
    38    16    61    1
    39    17    21    1
    40    17    66    1
    41    17    67    1
    42    18    22    1
    43    18    64    1
    44    18    65    1
    45    19    23    1
    46    19    70    1
    47    19    71    1
    48    20    24    1
    49    20    68    1
    50    20    69    1
    51    21    25    1
    52    21    74    1
    53    21    75    1
    54    22    26    1
    55    22    72    1
    56    22    73    1
    57    23    27    1
    58    23    78    1
    59    23    79    1
    60    24    28    1
    61    24    76    1
    62    24    77    1
    63    25    29    1
    64    25    82    1
    65    25    83    1
    66    26    30    1
    67    26    80    1
    68    26    81    1
    69    27    31    1
    70    27    84    1
    71    27    85    1
    72    28    32    1
    73    28    86    1
    74    28    87    1
    75    29    33    1
    76    29    90    1
    77    29    91    1
    78    30    34    1
    79    30    88    1
    80    30    89    1
    81    31    38    2
    82    31    40    1
    83    32    39    2
    84    32    41    1
    85    33    46    1
    86    33    92    1
    87    33    93    1
    88    34    47    1
    89    34    94    1
    90    34    95    1
    91    35    36    1
    92    35    37    1
    93    35    96    1
    94    35    97    1
    95    36    42    2
    96    36    44    1
    97    37    43    2
    98    37    45    1
    99    38    44    1
   100    39    45    1
   101    40    42    1
   102    41    43    1
   103    46   101    1
   104    46   102    1
   105    46   103    1
   106    47    98    1
   107    47    99    1
   108    47   100    1
