@<TRIPOS>MOLECULE
IMPHY007848
 27 27 0 0 0
SMALL
GASTEIGER

@<TRIPOS>ATOM
      1 O           7.1962    0.2500    0.0000 O.3     1  UNL1       -0.4932
      2 O           2.8660   -0.2500    0.0000 O.3     1  UNL1       -0.4644
      3 O           3.7320    1.2500    0.0000 O.2     1  UNL1       -0.2449
      4 N           5.4641    1.2500    0.0000 N.pl3   1  UNL1       -0.3435
      5 C           5.4641    0.2500    0.0000 C.ar    1  UNL1        0.0832
      6 C           4.5981   -0.2500    0.0000 C.ar    1  UNL1        0.0833
      7 C           6.3301   -0.2500    0.0000 C.ar    1  UNL1        0.1416
      8 C           4.5981   -1.2500    0.0000 C.ar    1  UNL1       -0.0457
      9 C           6.3301   -1.2500    0.0000 C.ar    1  UNL1       -0.0181
     10 C           5.4641   -1.7500    0.0000 C.ar    1  UNL1       -0.0574
     11 C           3.7320    0.2500    0.0000 C.2     1  UNL1        0.3408
     12 C           6.3301    1.7500    0.0000 C.3     1  UNL1       -0.0023
     13 C           8.0622   -0.2500    0.0000 C.3     1  UNL1        0.0789
     14 C           2.0000    0.2500    0.0000 C.3     1  UNL1        0.0820
     15 H           4.0611   -1.5600    0.0000 H       1  UNL1        0.0626
     16 H           6.8671   -1.5600    0.0000 H       1  UNL1        0.0655
     17 H           4.9272    1.5600    0.0000 H       1  UNL1        0.1459
     18 H           5.4641   -2.3700    0.0000 H       1  UNL1        0.0619
     19 H           6.6401    1.2131    0.0000 H       1  UNL1        0.0425
     20 H           6.8671    2.0600    0.0000 H       1  UNL1        0.0425
     21 H           6.0201    2.2869    0.0000 H       1  UNL1        0.0425
     22 H           7.7522   -0.7869    0.0000 H       1  UNL1        0.0660
     23 H           8.5991   -0.5600    0.0000 H       1  UNL1        0.0660
     24 H           8.3722    0.2869    0.0000 H       1  UNL1        0.0660
     25 H           2.3100    0.7869    0.0000 H       1  UNL1        0.0661
     26 H           1.4631    0.5600    0.0000 H       1  UNL1        0.0661
     27 H           1.6900   -0.2869    0.0000 H       1  UNL1        0.0661
@<TRIPOS>BOND
     1     1     7    1
     2     1    13    1
     3     2    11    1
     4     2    14    1
     5     3    11    2
     6     4     5    1
     7     4    12    1
     8     4    17    1
     9     5     6   ar
    10     5     7   ar
    11     6     8   ar
    12     6    11    1
    13     7     9   ar
    14     8    10   ar
    15     8    15    1
    16     9    10   ar
    17     9    16    1
    18    10    18    1
    19    12    19    1
    20    12    20    1
    21    12    21    1
    22    13    22    1
    23    13    23    1
    24    13    24    1
    25    14    25    1
    26    14    26    1
    27    14    27    1
