@<TRIPOS>MOLECULE
IMPHY008970
 26 30 0 0 0
SMALL
GASTEIGER

@<TRIPOS>ATOM
      1 N           8.7220    2.1557    0.0000 N.3     1  UNL1       -0.2728
      2 N           2.5357   -2.5357    0.0000 N.3     1  UNL1       -0.3219
      3 C           7.9288    0.5166    0.0000 C.3     1  UNL1        0.0160
      4 C           7.9288   -0.4834    0.0000 C.3     1  UNL1        0.0017
      5 C           8.8750    0.8214    0.0000 C.3     1  UNL1        0.0160
      6 C           7.0628   -0.9834    0.0000 C.3     1  UNL1        0.0047
      7 C           6.1968   -0.4834    0.0000 C.3     1  UNL1        0.0038
      8 C           7.0628    1.0166    0.0000 C.3     1  UNL1        0.0014
      9 C           8.8750   -0.7881    0.0000 C.3     1  UNL1        0.0001
     10 C           7.8306    1.4999    0.0000 C.3     1  UNL1        0.0720
     11 C           9.4586    0.0166    0.0000 C.3     1  UNL1        0.0014
     12 C           9.3691    1.6772    0.0000 C.3     1  UNL1        0.0576
     13 C           6.1968    0.5166    0.0000 C.3     1  UNL1        0.0004
     14 C           5.2868   -0.9902    0.0000 C.3     1  UNL1        0.0150
     15 C           7.0789   -2.0249    0.0000 C.3     1  UNL1        0.0254
     16 C           5.2787   -2.0318    0.0000 C.2     1  UNL1       -0.0478
     17 C           4.3599   -0.4261    0.0000 C.3     1  UNL1        0.0051
     18 C           6.1808   -2.5526    0.0000 C.2     1  UNL1       -0.0346
     19 C          10.3205    1.9854    0.0000 C.3     1  UNL1        0.0173
     20 C           5.2945    0.0097    0.0000 C.3     1  UNL1        0.0040
     21 C           4.3433   -2.5815    0.0000 C.3     1  UNL1        0.0371
     22 C           3.4120   -0.9541    0.0000 C.3     1  UNL1        0.0161
     23 C           8.7246    3.1557    0.0000 C.3     1  UNL1        0.0896
     24 C           3.4037   -2.0390    0.0000 C.3     1  UNL1        0.0549
     25 H           2.0000   -2.2236    0.0000 H       1  UNL1        0.1188
     26 H           2.5333   -3.1557    0.0000 H       1  UNL1        0.1188
@<TRIPOS>BOND
     1     1    10    1
     2     1    12    1
     3     1    23    1
     4     2    25    1
     5     2    26    1
     6     3     4    1
     7     3     5    1
     8     3     8    1
     9     3    10    1
    10     4     6    1
    11     4     9    1
    12     5    11    1
    13     5    12    1
    14     6     7    1
    15     6    15    1
    16     7    13    1
    17     7    14    1
    18     8    13    1
    19     9    11    1
    20    12    19    1
    21    14    16    1
    22    14    17    1
    23    14    20    1
    24    15    18    1
    25    16    18    2
    26    16    21    1
    27    17    22    1
    28    21    24    1
    29    22    24    1
    30    24     2    1
