@<TRIPOS>MOLECULE
IMPHY016552
 74 76 0 0 0
SMALL
GASTEIGER

@<TRIPOS>ATOM
      1 O           9.6100    5.5057    0.0000 O.3     1  UNL1       -0.3891
      2 O           2.0000   -5.0136    0.0000 O.3     1  UNL1       -0.3914
      3 O           5.4641   -5.0136    0.0000 O.3     1  UNL1       -0.3871
      4 C           5.4641    0.9864    0.0000 C.3     1  UNL1       -0.0225
      5 C           6.4103    1.2912    0.0000 C.3     1  UNL1       -0.0325
      6 C           5.4641   -0.0136    0.0000 C.3     1  UNL1       -0.0139
      7 C           6.9939    0.4864    0.0000 C.3     1  UNL1       -0.0489
      8 C           6.4103   -0.3183    0.0000 C.3     1  UNL1       -0.0457
      9 C           4.5981    1.4864    0.0000 C.3     1  UNL1       -0.0465
     10 C           6.7210    2.2417    0.0000 C.3     1  UNL1       -0.0405
     11 C           4.5981   -0.5136    0.0000 C.2     1  UNL1       -0.0659
     12 C           5.4641    1.9864    0.0000 C.3     1  UNL1       -0.0588
     13 C           3.7320    0.9864    0.0000 C.3     1  UNL1       -0.0488
     14 C           3.7320   -0.0136    0.0000 C.3     1  UNL1       -0.0312
     15 C           7.6995    2.4479    0.0000 C.3     1  UNL1       -0.0501
     16 C           6.0531    2.9860    0.0000 C.3     1  UNL1       -0.0621
     17 C           4.5981   -1.5136    0.0000 C.2     1  UNL1       -0.0620
     18 C           8.0102    3.3984    0.0000 C.3     1  UNL1       -0.0502
     19 C           8.9887    3.6047    0.0000 C.3     1  UNL1       -0.0245
     20 C           3.7320   -2.0136    0.0000 C.2     1  UNL1       -0.0582
     21 C           9.2993    4.5552    0.0000 C.3     1  UNL1        0.0605
     22 C           3.7320   -3.0136    0.0000 C.2     1  UNL1       -0.0399
     23 C           2.8660   -3.5136    0.0000 C.3     1  UNL1       -0.0011
     24 C          10.2498    4.2445    0.0000 C.3     1  UNL1       -0.0363
     25 C           8.3488    4.8658    0.0000 C.3     1  UNL1       -0.0363
     26 C           4.5981   -3.5136    0.0000 C.2     1  UNL1       -0.0229
     27 C           2.8660   -4.5136    0.0000 C.3     1  UNL1        0.0619
     28 C           4.5981   -4.5136    0.0000 C.3     1  UNL1        0.0822
     29 C           3.7320   -5.0136    0.0000 C.3     1  UNL1        0.0037
     30 C           5.4641   -3.0136    0.0000 C.2     1  UNL1       -0.0928
     31 H           7.2500    1.4231    0.0000 H       1  UNL1        0.0309
     32 H           5.5540   -0.8588    0.0000 H       1  UNL1        0.0351
     33 H           7.4548    0.0717    0.0000 H       1  UNL1        0.0268
     34 H           7.4548    0.9012    0.0000 H       1  UNL1        0.0268
     35 H           6.1593   -0.8852    0.0000 H       1  UNL1        0.0271
     36 H           6.9477   -0.6275    0.0000 H       1  UNL1        0.0271
     37 H           4.9966    1.9614    0.0000 H       1  UNL1        0.0271
     38 H           4.1996    1.9614    0.0000 H       1  UNL1        0.0271
     39 H           6.1143    2.1138    0.0000 H       1  UNL1        0.0301
     40 H           6.0841    1.9864    0.0000 H       1  UNL1        0.0235
     41 H           5.4641    2.6064    0.0000 H       1  UNL1        0.0235
     42 H           4.8441    1.9864    0.0000 H       1  UNL1        0.0235
     43 H           3.5200    1.5691    0.0000 H       1  UNL1        0.0268
     44 H           3.1215    0.8788    0.0000 H       1  UNL1        0.0268
     45 H           3.1215    0.0941    0.0000 H       1  UNL1        0.0310
     46 H           3.5200   -0.5962    0.0000 H       1  UNL1        0.0310
     47 H           7.7201    1.8283    0.0000 H       1  UNL1        0.0268
     48 H           8.3133    2.3606    0.0000 H       1  UNL1        0.0268
     49 H           6.5146    3.4001    0.0000 H       1  UNL1        0.0233
     50 H           5.6391    3.4475    0.0000 H       1  UNL1        0.0233
     51 H           5.5917    2.5719    0.0000 H       1  UNL1        0.0233
     52 H           5.1350   -1.8236    0.0000 H       1  UNL1        0.0617
     53 H           7.9896    4.0181    0.0000 H       1  UNL1        0.0266
     54 H           7.3963    3.4858    0.0000 H       1  UNL1        0.0266
     55 H           9.0092    2.9850    0.0000 H       1  UNL1        0.0293
     56 H           9.6025    3.5173    0.0000 H       1  UNL1        0.0293
     57 H           3.1951   -1.7036    0.0000 H       1  UNL1        0.0620
     58 H           2.6540   -2.9309    0.0000 H       1  UNL1        0.0338
     59 H           2.2554   -3.6212    0.0000 H       1  UNL1        0.0338
     60 H          10.0572    3.6552    0.0000 H       1  UNL1        0.0257
     61 H          10.8392    4.0519    0.0000 H       1  UNL1        0.0257
     62 H          10.4425    4.8338    0.0000 H       1  UNL1        0.0257
     63 H           8.5414    5.4552    0.0000 H       1  UNL1        0.0257
     64 H           7.7595    5.0584    0.0000 H       1  UNL1        0.0257
     65 H           8.1562    4.2765    0.0000 H       1  UNL1        0.0257
     66 H           2.8660   -5.1335    0.0000 H       1  UNL1        0.0597
     67 H           4.5981   -5.1335    0.0000 H       1  UNL1        0.0644
     68 H           3.3335   -5.4885    0.0000 H       1  UNL1        0.0318
     69 H           4.1306   -5.4885    0.0000 H       1  UNL1        0.0318
     70 H          10.2167    5.6335    0.0000 H       1  UNL1        0.2101
     71 H           6.0010   -3.3236    0.0000 H       1  UNL1        0.0538
     72 H           5.4641   -2.3936    0.0000 H       1  UNL1        0.0538
     73 H           2.0000   -5.6335    0.0000 H       1  UNL1        0.2098
     74 H           5.4641   -5.6335    0.0000 H       1  UNL1        0.2102
@<TRIPOS>BOND
     1     1    21    1
     2     1    70    1
     3    27     2    1
     4     2    73    1
     5    28     3    1
     6     3    74    1
     7     4     5    1
     8     4     6    1
     9     4     9    1
    10     4    12    1
    11     5     7    1
    12     5    10    1
    13     5    31    1
    14     6     8    1
    15     6    11    1
    16     6    32    1
    17     7     8    1
    18     7    33    1
    19     7    34    1
    20     8    35    1
    21     8    36    1
    22     9    13    1
    23     9    37    1
    24     9    38    1
    25    10    15    1
    26    10    16    1
    27    10    39    1
    28    11    14    1
    29    11    17    2
    30    12    40    1
    31    12    41    1
    32    12    42    1
    33    13    14    1
    34    13    43    1
    35    13    44    1
    36    14    45    1
    37    14    46    1
    38    15    18    1
    39    15    47    1
    40    15    48    1
    41    16    49    1
    42    16    50    1
    43    16    51    1
    44    17    20    1
    45    17    52    1
    46    18    19    1
    47    18    53    1
    48    18    54    1
    49    19    21    1
    50    19    55    1
    51    19    56    1
    52    20    22    2
    53    20    57    1
    54    21    24    1
    55    21    25    1
    56    22    23    1
    57    22    26    1
    58    23    27    1
    59    23    58    1
    60    23    59    1
    61    24    60    1
    62    24    61    1
    63    24    62    1
    64    25    63    1
    65    25    64    1
    66    25    65    1
    67    26    28    1
    68    26    30    2
    69    27    29    1
    70    27    66    1
    71    28    29    1
    72    28    67    1
    73    29    68    1
    74    29    69    1
    75    30    71    1
    76    30    72    1
