@<TRIPOS>MOLECULE
IMPHY013383
 101 106 0 0 0
SMALL
GASTEIGER

@<TRIPOS>ATOM
      1 O           6.8671   -0.3450    0.0000 O.3     1  UNL1       -0.3313
      2 O           6.0010   -2.8450    0.0000 O.3     1  UNL1       -0.3461
      3 O           4.2690   -2.8450    0.0000 O.3     1  UNL1       -0.3431
      4 O           7.7331   -2.8450    0.0000 O.3     1  UNL1       -0.3865
      5 O           7.7331    1.1550    0.0000 O.3     1  UNL1       -0.4515
      6 O           9.4651   -1.8450    0.0000 O.3     1  UNL1       -0.3864
      7 O          12.0622   -1.3895    0.0000 O.3     1  UNL1       -0.3313
      8 O           9.4651    0.1550    0.0000 O.3     1  UNL1       -0.3829
      9 O           6.0010   -4.8450    0.0000 O.3     1  UNL1       -0.3841
     10 O           4.2690   -5.8450    0.0000 O.3     1  UNL1       -0.3864
     11 O           2.5369   -4.8450    0.0000 O.3     1  UNL1       -0.3866
     12 O          11.2135    0.1204    0.0000 O.3     1  UNL1       -0.4598
     13 O          14.6774    0.0803    0.0000 O.3     1  UNL1       -0.3864
     14 O          14.6543   -1.9195    0.0000 O.3     1  UNL1       -0.3865
     15 O          12.9570    1.1003    0.0000 O.3     1  UNL1       -0.3829
     16 O           9.4651    3.1550    0.0000 O.2     1  UNL1       -0.1997
     17 O          13.7710   -3.4094    0.0000 O.3     1  UNL1       -0.3924
     18 O          12.9953    3.1792    0.0000 O.3     1  UNL1       -0.5063
     19 O           6.8671    5.6550    0.0000 O.3     1  UNL1       -0.4913
     20 O           5.1350    2.6550    0.0000 O.3     1  UNL1       -0.4913
     21 O           5.1350    4.6550    0.0000 O.3     1  UNL1       -0.5009
     22 C           6.8671   -1.3450    0.0000 C.3     1  UNL1        0.1144
     23 C           7.7331   -1.8450    0.0000 C.3     1  UNL1        0.1120
     24 C           8.5991   -1.3450    0.0000 C.3     1  UNL1        0.1152
     25 C           8.5991   -0.3450    0.0000 C.3     1  UNL1        0.1454
     26 C           5.1350   -4.3450    0.0000 C.3     1  UNL1        0.1341
     27 C           5.1350   -3.3450    0.0000 C.3     1  UNL1        0.1879
     28 C           4.2690   -4.8450    0.0000 C.3     1  UNL1        0.1140
     29 C           7.7331    0.1550    0.0000 C.3     1  UNL1        0.2312
     30 C           3.4030   -4.3450    0.0000 C.3     1  UNL1        0.1095
     31 C           6.0010   -1.8450    0.0000 C.3     1  UNL1        0.0796
     32 C           3.4030   -3.3450    0.0000 C.3     1  UNL1        0.0873
     33 C          13.8057   -0.4096    0.0000 C.3     1  UNL1        0.1152
     34 C          13.7941   -1.4095    0.0000 C.3     1  UNL1        0.1120
     35 C          12.9455    0.1004    0.0000 C.3     1  UNL1        0.1454
     36 C          12.9224   -1.8995    0.0000 C.3     1  UNL1        0.1140
     37 C          12.0737   -0.3896    0.0000 C.3     1  UNL1        0.2308
     38 C           2.5369   -2.8450    0.0000 C.3     1  UNL1       -0.0361
     39 C          12.9108   -2.8994    0.0000 C.3     1  UNL1        0.0731
     40 C           8.5991    1.6550    0.0000 C.ar    1  UNL1        0.2288
     41 C          11.2251    1.1203    0.0000 C.ar    1  UNL1        0.1437
     42 C          10.3312    1.6550    0.0000 C.ar    1  UNL1        0.1245
     43 C           9.4651    1.1550    0.0000 C.ar    1  UNL1        0.0093
     44 C           8.5991    2.6550    0.0000 C.ar    1  UNL1        0.4047
     45 C          10.3312    2.6550    0.0000 C.ar    1  UNL1        0.3708
     46 C          12.1312    1.6342    0.0000 C.ar    1  UNL1        0.0229
     47 C           7.7331    3.1550    0.0000 C.ar    1  UNL1        0.0899
     48 C          11.2251    3.1897    0.0000 C.ar    1  UNL1        0.0847
     49 C          12.1312    2.6758    0.0000 C.ar    1  UNL1        0.1293
     50 C           6.8671    2.6550    0.0000 C.ar    1  UNL1        0.0002
     51 C           7.7331    4.1550    0.0000 C.ar    1  UNL1        0.0002
     52 C           6.8671    4.6550    0.0000 C.ar    1  UNL1        0.1658
     53 C           6.0010    3.1550    0.0000 C.ar    1  UNL1        0.1658
     54 C           6.0010    4.1550    0.0000 C.ar    1  UNL1        0.2011
     55 C           7.7331    6.1550    0.0000 C.3     1  UNL1        0.0790
     56 C           4.2690    3.1550    0.0000 C.3     1  UNL1        0.0790
     57 H           6.3301   -1.0350    0.0000 H       1  UNL1        0.0647
     58 H           8.2700   -2.1550    0.0000 H       1  UNL1        0.0647
     59 H           9.1360   -1.0350    0.0000 H       1  UNL1        0.0648
     60 H           8.5991    0.2750    0.0000 H       1  UNL1        0.0683
     61 H           5.6720   -4.0350    0.0000 H       1  UNL1        0.0671
     62 H           5.1350   -2.7250    0.0000 H       1  UNL1        0.0937
     63 H           4.8059   -5.1550    0.0000 H       1  UNL1        0.0648
     64 H           7.1962    0.4650    0.0000 H       1  UNL1        0.1084
     65 H           2.8660   -4.0350    0.0000 H       1  UNL1        0.0646
     66 H           5.7890   -1.2624    0.0000 H       1  UNL1        0.0587
     67 H           5.3905   -1.9527    0.0000 H       1  UNL1        0.0587
     68 H           3.4030   -2.7250    0.0000 H       1  UNL1        0.0621
     69 H          13.8128    0.2104    0.0000 H       1  UNL1        0.0648
     70 H          14.3346   -1.1058    0.0000 H       1  UNL1        0.0647
     71 H          13.4860    0.4041    0.0000 H       1  UNL1        0.0683
     72 H          12.3819   -2.2033    0.0000 H       1  UNL1        0.0647
     73 H          12.0809    0.2304    0.0000 H       1  UNL1        0.1084
     74 H           2.8469   -2.3081    0.0000 H       1  UNL1        0.0255
     75 H           2.0000   -2.5350    0.0000 H       1  UNL1        0.0255
     76 H           2.2269   -3.3819    0.0000 H       1  UNL1        0.0255
     77 H           8.2700   -3.1550    0.0000 H       1  UNL1        0.2100
     78 H          10.0021   -1.5350    0.0000 H       1  UNL1        0.2100
     79 H          10.0021   -0.1550    0.0000 H       1  UNL1        0.2102
     80 H           6.5380   -4.5350    0.0000 H       1  UNL1        0.2101
     81 H           3.7320   -6.1550    0.0000 H       1  UNL1        0.2100
     82 H          12.3015   -2.7847    0.0000 H       1  UNL1        0.0584
     83 H          12.6920   -3.4795    0.0000 H       1  UNL1        0.0584
     84 H           2.0000   -4.5350    0.0000 H       1  UNL1        0.2100
     85 H          15.2107   -0.2358    0.0000 H       1  UNL1        0.2100
     86 H          15.1948   -1.6158    0.0000 H       1  UNL1        0.2100
     87 H          13.4975    1.4041    0.0000 H       1  UNL1        0.2102
     88 H           9.4651    0.5350    0.0000 H       1  UNL1        0.0667
     89 H          12.6669    1.3221    0.0000 H       1  UNL1        0.0691
     90 H          14.3115   -3.1056    0.0000 H       1  UNL1        0.2095
     91 H          11.2179    3.8096    0.0000 H       1  UNL1        0.0749
     92 H           6.8671    2.0350    0.0000 H       1  UNL1        0.0664
     93 H           8.2700    4.4650    0.0000 H       1  UNL1        0.0664
     94 H          12.9929    3.7992    0.0000 H       1  UNL1        0.2921
     95 H           5.1350    5.2750    0.0000 H       1  UNL1        0.2924
     96 H           8.0431    5.6181    0.0000 H       1  UNL1        0.0660
     97 H           8.2700    6.4650    0.0000 H       1  UNL1        0.0660
     98 H           7.4231    6.6919    0.0000 H       1  UNL1        0.0660
     99 H           4.5790    3.6919    0.0000 H       1  UNL1        0.0660
    100 H           3.7320    3.4650    0.0000 H       1  UNL1        0.0660
    101 H           3.9590    2.6181    0.0000 H       1  UNL1        0.0660
@<TRIPOS>UNITY_ATOM_ATTR
16 1
charge 1
@<TRIPOS>BOND
     1     1    22    1
     2     1    29    1
     3    27     2    1
     4     2    31    1
     5     3    27    1
     6     3    32    1
     7    23     4    1
     8     4    77    1
     9    29     5    1
    10     5    40    1
    11     6    24    1
    12     6    78    1
    13     7    36    1
    14     7    37    1
    15     8    25    1
    16     8    79    1
    17     9    26    1
    18     9    80    1
    19    28    10    1
    20    10    81    1
    21    30    11    1
    22    11    84    1
    23    37    12    1
    24    12    41    1
    25    33    13    1
    26    13    85    1
    27    34    14    1
    28    14    86    1
    29    15    35    1
    30    15    87    1
    31    16    44   ar
    32    16    45   ar
    33    17    39    1
    34    17    90    1
    35    18    49    1
    36    18    94    1
    37    19    52    1
    38    19    55    1
    39    20    53    1
    40    20    56    1
    41    21    54    1
    42    21    95    1
    43    22    23    1
    44    22    31    1
    45    22    57    1
    46    23    24    1
    47    23    58    1
    48    24    25    1
    49    24    59    1
    50    25    29    1
    51    25    60    1
    52    26    27    1
    53    26    28    1
    54    26    61    1
    55    27    62    1
    56    28    30    1
    57    28    63    1
    58    29    64    1
    59    30    32    1
    60    30    65    1
    61    31    66    1
    62    31    67    1
    63    32    38    1
    64    32    68    1
    65    33    34    1
    66    33    35    1
    67    33    69    1
    68    34    36    1
    69    34    70    1
    70    35    37    1
    71    35    71    1
    72    36    39    1
    73    36    72    1
    74    37    73    1
    75    38    74    1
    76    38    75    1
    77    38    76    1
    78    39    82    1
    79    39    83    1
    80    40    43   ar
    81    40    44   ar
    82    41    42   ar
    83    41    46   ar
    84    42    43   ar
    85    42    45   ar
    86    43    88    1
    87    44    47    1
    88    45    48   ar
    89    46    49   ar
    90    46    89    1
    91    47    50   ar
    92    47    51   ar
    93    48    49   ar
    94    48    91    1
    95    50    53   ar
    96    50    92    1
    97    51    52   ar
    98    51    93    1
    99    52    54   ar
   100    53    54   ar
   101    55    96    1
   102    55    97    1
   103    55    98    1
   104    56    99    1
   105    56   100    1
   106    56   101    1
