@<TRIPOS>MOLECULE
IMPHY008302
 218 229 0 0 0
SMALL
GASTEIGER

@<TRIPOS>ATOM
      1 O           9.4651   -5.0394    0.0000 O.3     1  UNL1       -0.3449
      2 O          12.2592    2.0392    0.0000 O.3     1  UNL1       -0.3906
      3 O          11.2189    4.2401    0.0000 O.3     1  UNL1       -0.4318
      4 O          12.2132    3.4252    0.0000 O.2     1  UNL1       -0.2500
      5 O           7.7331   -5.0394    0.0000 O.3     1  UNL1       -0.3405
      6 O           9.4651   -7.0394    0.0000 O.3     1  UNL1       -0.3841
      7 O          12.9509    4.2601    0.0000 O.3     1  UNL1       -0.3368
      8 O           7.7331   -8.0394    0.0000 O.3     1  UNL1       -0.3401
      9 O          11.1958    6.2399    0.0000 O.3     1  UNL1       -0.3366
     10 O           6.0010   -7.0394    0.0000 O.3     1  UNL1       -0.3865
     11 O           6.0010   -4.0394    0.0000 O.3     1  UNL1       -0.3461
     12 O          12.9162    7.2599    0.0000 O.3     1  UNL1       -0.3864
     13 O          14.6597    6.2800    0.0000 O.3     1  UNL1       -0.3869
     14 O           6.0010   -8.0394    0.0000 O.3     1  UNL1       -0.3431
     15 O          12.0444    7.7498    0.0000 O.3     1  UNL1       -0.3431
     16 O           7.7331  -10.0394    0.0000 O.3     1  UNL1       -0.3841
     17 O           4.2690   -4.0394    0.0000 O.3     1  UNL1       -0.3461
     18 O           9.4523    7.2198    0.0000 O.3     1  UNL1       -0.3841
     19 O           6.0010  -11.0394    0.0000 O.3     1  UNL1       -0.3864
     20 O           4.2690  -10.0394    0.0000 O.3     1  UNL1       -0.3402
     21 O           9.4292    9.2197    0.0000 O.3     1  UNL1       -0.3864
     22 O          11.1496   10.2397    0.0000 O.3     1  UNL1       -0.3402
     23 O           6.0010   -2.0394    0.0000 O.3     1  UNL1       -0.3841
     24 O           4.2690   -1.0394    0.0000 O.3     1  UNL1       -0.3864
     25 O           2.5369   -2.0394    0.0000 O.3     1  UNL1       -0.3869
     26 O           5.1350  -11.5394    0.0000 O.3     1  UNL1       -0.3431
     27 O          10.2663   11.7295    0.0000 O.3     1  UNL1       -0.3405
     28 O           2.5369  -11.0394    0.0000 O.3     1  UNL1       -0.3841
     29 O           9.4292    9.2197    0.0000 O.3     1  UNL1       -0.3841
     30 O           2.5369  -13.0394    0.0000 O.3     1  UNL1       -0.3864
     31 O           4.2690  -14.0394    0.0000 O.3     1  UNL1       -0.3866
     32 O           7.6857   10.1996    0.0000 O.3     1  UNL1       -0.3864
     33 O           7.6626   12.1995    0.0000 O.3     1  UNL1       -0.3865
     34 O          10.2431   13.7294    0.0000 O.3     1  UNL1       -0.3924
     35 C          10.3662   -0.3392    0.0000 C.3     1  UNL1       -0.0193
     36 C           9.5021   -0.8425    0.0000 C.3     1  UNL1       -0.0257
     37 C           9.4901   -1.8840    0.0000 C.3     1  UNL1       -0.0250
     38 C          10.3623    0.6608    0.0000 C.3     1  UNL1       -0.0028
     39 C          10.3901   -2.4083    0.0000 C.3     1  UNL1       -0.0278
     40 C          11.2781   -0.8425    0.0000 C.3     1  UNL1       -0.0463
     41 C          11.2902   -1.8840    0.0000 C.3     1  UNL1       -0.0486
     42 C          10.4027   -3.4933    0.0000 C.3     1  UNL1       -0.0052
     43 C           9.4944    1.1575    0.0000 C.2     1  UNL1       -0.0627
     44 C           9.4743    2.1989    0.0000 C.3     1  UNL1       -0.0007
     45 C           8.6342   -0.3458    0.0000 C.3     1  UNL1       -0.0306
     46 C           8.5402   -2.4083    0.0000 C.3     1  UNL1       -0.0447
     47 C          11.2704    1.1712    0.0000 C.3     1  UNL1       -0.0162
     48 C          10.3703    2.7302    0.0000 C.3     1  UNL1        0.1000
     49 C          11.2744    2.2128    0.0000 C.3     1  UNL1        0.0723
     50 C          11.3503   -0.1617    0.0000 C.3     1  UNL1       -0.0585
     51 C           9.4651   -4.0394    0.0000 C.3     1  UNL1        0.0672
     52 C           8.6303    0.6542    0.0000 C.2     1  UNL1       -0.0836
     53 C           8.6260   -1.3807    0.0000 C.3     1  UNL1       -0.0590
     54 C           8.5276   -3.4933    0.0000 C.3     1  UNL1       -0.0255
     55 C          11.3478    0.4910    0.0000 C.3     1  UNL1       -0.0552
     56 C           8.5204    2.7159    0.0000 C.3     1  UNL1       -0.0402
     57 C          10.3745    3.8151    0.0000 C.3     1  UNL1       -0.0338
     58 C           8.4995    3.8007    0.0000 C.3     1  UNL1       -0.0343
     59 C          11.4026   -3.4856    0.0000 C.3     1  UNL1       -0.0572
     60 C          10.9093   -4.3554    0.0000 C.3     1  UNL1       -0.0572
     61 C           9.4328    4.3540    0.0000 C.3     1  UNL1       -0.0467
     62 C          11.2305    3.2401    0.0000 C.2     1  UNL1        0.3186
     63 C           7.9862    4.6589    0.0000 C.3     1  UNL1       -0.0598
     64 C           7.4996    3.7853    0.0000 C.3     1  UNL1       -0.0598
     65 C           8.5991   -5.5394    0.0000 C.3     1  UNL1        0.1882
     66 C           8.5991   -6.5394    0.0000 C.3     1  UNL1        0.1345
     67 C          12.0791    4.7500    0.0000 C.3     1  UNL1        0.2338
     68 C           7.7331   -7.0394    0.0000 C.3     1  UNL1        0.1206
     69 C           6.8671   -5.5394    0.0000 C.3     1  UNL1        0.1134
     70 C           6.8671   -6.5394    0.0000 C.3     1  UNL1        0.1123
     71 C          12.0676    5.7500    0.0000 C.3     1  UNL1        0.1520
     72 C          12.9278    6.2600    0.0000 C.3     1  UNL1        0.1152
     73 C           6.0010   -5.0394    0.0000 C.3     1  UNL1        0.0796
     74 C          13.8111    4.7701    0.0000 C.3     1  UNL1        0.0802
     75 C          13.7995    5.7700    0.0000 C.3     1  UNL1        0.1070
     76 C           6.8671   -8.5394    0.0000 C.3     1  UNL1        0.1883
     77 C          11.1843    7.2399    0.0000 C.3     1  UNL1        0.1885
     78 C           6.8671   -9.5394    0.0000 C.3     1  UNL1        0.1341
     79 C          10.3125    7.7298    0.0000 C.3     1  UNL1        0.1341
     80 C           5.1350   -3.5394    0.0000 C.3     1  UNL1        0.1876
     81 C           6.0010  -10.0394    0.0000 C.3     1  UNL1        0.1143
     82 C           5.1350   -8.5394    0.0000 C.3     1  UNL1        0.0877
     83 C           5.1350   -9.5394    0.0000 C.3     1  UNL1        0.1160
     84 C          10.3009    8.7297    0.0000 C.3     1  UNL1        0.1143
     85 C          12.0329    8.7498    0.0000 C.3     1  UNL1        0.0877
     86 C           5.1350   -2.5394    0.0000 C.3     1  UNL1        0.1341
     87 C          11.1611    9.2397    0.0000 C.3     1  UNL1        0.1160
     88 C           4.2690   -8.0394    0.0000 C.3     1  UNL1       -0.0361
     89 C           4.2690   -2.0394    0.0000 C.3     1  UNL1        0.1137
     90 C           3.4030   -3.5394    0.0000 C.3     1  UNL1        0.0792
     91 C          12.8931    9.2598    0.0000 C.3     1  UNL1       -0.0361
     92 C           3.4030   -2.5394    0.0000 C.3     1  UNL1        0.1069
     93 C           4.2690  -11.0394    0.0000 C.3     1  UNL1        0.1883
     94 C          10.2778   10.7296    0.0000 C.3     1  UNL1        0.1884
     95 C           3.4030  -11.5394    0.0000 C.3     1  UNL1        0.1341
     96 C           9.4176   10.2196    0.0000 C.3     1  UNL1        0.1341
     97 C           3.4030  -12.5394    0.0000 C.3     1  UNL1        0.1140
     98 C           5.1350  -12.5394    0.0000 C.3     1  UNL1        0.0873
     99 C           4.2690  -13.0394    0.0000 C.3     1  UNL1        0.1095
    100 C           8.5459   10.7096    0.0000 C.3     1  UNL1        0.1141
    101 C           9.3945   12.2195    0.0000 C.3     1  UNL1        0.1130
    102 C           8.5343   11.7095    0.0000 C.3     1  UNL1        0.1119
    103 C           6.0010  -13.0394    0.0000 C.3     1  UNL1       -0.0361
    104 C           9.3829   13.2194    0.0000 C.3     1  UNL1        0.0730
    105 H          10.0378   -1.1546    0.0000 H       1  UNL1        0.0315
    106 H          10.9294   -2.7142    0.0000 H       1  UNL1        0.0312
    107 H          11.8902   -0.9415    0.0000 H       1  UNL1        0.0271
    108 H          11.4804   -0.2564    0.0000 H       1  UNL1        0.0271
    109 H          11.5060   -2.4653    0.0000 H       1  UNL1        0.0268
    110 H          11.8998   -1.7709    0.0000 H       1  UNL1        0.0268
    111 H           8.9447    1.8766    0.0000 H       1  UNL1        0.0357
    112 H           8.0232   -0.2405    0.0000 H       1  UNL1        0.0310
    113 H           8.4244   -0.9292    0.0000 H       1  UNL1        0.0310
    114 H           8.3379   -1.8223    0.0000 H       1  UNL1        0.0271
    115 H           7.9281   -2.5074    0.0000 H       1  UNL1        0.0271
    116 H          11.4772    0.5867    0.0000 H       1  UNL1        0.0299
    117 H          11.8816    1.2749    0.0000 H       1  UNL1        0.0299
    118 H          11.4853    2.7958    0.0000 H       1  UNL1        0.0605
    119 H          11.4603   -0.7719    0.0000 H       1  UNL1        0.0235
    120 H          11.9605   -0.0517    0.0000 H       1  UNL1        0.0235
    121 H          11.2403    0.4485    0.0000 H       1  UNL1        0.0235
    122 H          10.0027   -4.3483    0.0000 H       1  UNL1        0.0602
    123 H           8.0922    0.9621    0.0000 H       1  UNL1        0.0572
    124 H           8.9380   -0.8450    0.0000 H       1  UNL1        0.0235
    125 H           8.0902   -1.0686    0.0000 H       1  UNL1        0.0235
    126 H           8.3139   -1.9164    0.0000 H       1  UNL1        0.0235
    127 H           7.9180   -3.3801    0.0000 H       1  UNL1        0.0290
    128 H           8.3118   -4.0745    0.0000 H       1  UNL1        0.0290
    129 H          11.2425   -0.1200    0.0000 H       1  UNL1        0.0238
    130 H          11.9588    0.3857    0.0000 H       1  UNL1        0.0238
    131 H          11.4531    1.1020    0.0000 H       1  UNL1        0.0238
    132 H           7.9076    2.8102    0.0000 H       1  UNL1        0.0276
    133 H           8.3226    2.1283    0.0000 H       1  UNL1        0.0276
    134 H          10.9849    3.7067    0.0000 H       1  UNL1        0.0277
    135 H          10.5858    4.3980    0.0000 H       1  UNL1        0.0277
    136 H          11.4074   -4.1055    0.0000 H       1  UNL1        0.0236
    137 H          12.0226   -3.4808    0.0000 H       1  UNL1        0.0236
    138 H          11.3979   -2.8656    0.0000 H       1  UNL1        0.0236
    139 H          10.3748   -4.6695    0.0000 H       1  UNL1        0.0236
    140 H          11.2235   -4.8899    0.0000 H       1  UNL1        0.0236
    141 H          11.4439   -4.0413    0.0000 H       1  UNL1        0.0236
    142 H           9.8282    4.8315    0.0000 H       1  UNL1        0.0271
    143 H           9.0300    4.8254    0.0000 H       1  UNL1        0.0271
    144 H          12.4713    1.4566    0.0000 H       1  UNL1        0.2098
    145 H           7.4900    4.4052    0.0000 H       1  UNL1        0.0235
    146 H           6.8797    3.7757    0.0000 H       1  UNL1        0.0235
    147 H           7.5092    3.1653    0.0000 H       1  UNL1        0.0235
    148 H           8.5183    4.9771    0.0000 H       1  UNL1        0.0235
    149 H           7.6680    5.1910    0.0000 H       1  UNL1        0.0235
    150 H           7.4541    4.3406    0.0000 H       1  UNL1        0.0235
    151 H           8.5991   -4.9194    0.0000 H       1  UNL1        0.0937
    152 H           8.5991   -7.1594    0.0000 H       1  UNL1        0.0671
    153 H          12.0863    4.1301    0.0000 H       1  UNL1        0.1085
    154 H           7.1962   -7.3494    0.0000 H       1  UNL1        0.0651
    155 H           6.8671   -4.9194    0.0000 H       1  UNL1        0.0647
    156 H           6.8671   -7.1594    0.0000 H       1  UNL1        0.0647
    157 H          12.0604    6.3699    0.0000 H       1  UNL1        0.0687
    158 H           9.4651   -7.6594    0.0000 H       1  UNL1        0.2101
    159 H          13.4611    6.5762    0.0000 H       1  UNL1        0.0648
    160 H           5.3905   -4.9317    0.0000 H       1  UNL1        0.0587
    161 H           5.7890   -5.6220    0.0000 H       1  UNL1        0.0587
    162 H          14.0298    4.1899    0.0000 H       1  UNL1        0.0588
    163 H          14.4204    4.8848    0.0000 H       1  UNL1        0.0588
    164 H          14.3400    5.4662    0.0000 H       1  UNL1        0.0643
    165 H           5.4641   -6.7294    0.0000 H       1  UNL1        0.2100
    166 H           7.4040   -8.8494    0.0000 H       1  UNL1        0.0938
    167 H          10.6509    6.9237    0.0000 H       1  UNL1        0.0938
    168 H          13.4495    7.5761    0.0000 H       1  UNL1        0.2100
    169 H           6.8671  -10.1594    0.0000 H       1  UNL1        0.0671
    170 H          15.2002    5.9762    0.0000 H       1  UNL1        0.2100
    171 H           9.7720    8.0336    0.0000 H       1  UNL1        0.0671
    172 H           5.6720   -3.2294    0.0000 H       1  UNL1        0.0937
    173 H           5.4641  -10.3494    0.0000 H       1  UNL1        0.0648
    174 H           5.1350   -7.9194    0.0000 H       1  UNL1        0.0621
    175 H           5.1350  -10.1594    0.0000 H       1  UNL1        0.0650
    176 H          10.2938    9.3497    0.0000 H       1  UNL1        0.0648
    177 H          12.5734    8.4460    0.0000 H       1  UNL1        0.0621
    178 H           5.1350   -1.9194    0.0000 H       1  UNL1        0.0671
    179 H          10.6206    9.5435    0.0000 H       1  UNL1        0.0650
    180 H           8.2700   -9.7294    0.0000 H       1  UNL1        0.2101
    181 H           4.5790   -7.5024    0.0000 H       1  UNL1        0.0255
    182 H           3.7320   -7.7294    0.0000 H       1  UNL1        0.0255
    183 H           3.9590   -8.5763    0.0000 H       1  UNL1        0.0255
    184 H           8.9118    7.5236    0.0000 H       1  UNL1        0.2101
    185 H           3.7320   -1.7294    0.0000 H       1  UNL1        0.0647
    186 H           6.5380  -11.3494    0.0000 H       1  UNL1        0.2100
    187 H           2.7924   -3.4317    0.0000 H       1  UNL1        0.0587
    188 H           3.1909   -4.1220    0.0000 H       1  UNL1        0.0587
    189 H          13.2093    8.7264    0.0000 H       1  UNL1        0.0255
    190 H          13.4264    9.5759    0.0000 H       1  UNL1        0.0255
    191 H          12.5769    9.7931    0.0000 H       1  UNL1        0.0255
    192 H           3.9399   -2.8494    0.0000 H       1  UNL1        0.0643
    193 H           8.8959    8.9035    0.0000 H       1  UNL1        0.2100
    194 H           6.0010   -1.4194    0.0000 H       1  UNL1        0.2101
    195 H           3.7320  -10.7294    0.0000 H       1  UNL1        0.0938
    196 H          10.2850   10.1097    0.0000 H       1  UNL1        0.0938
    197 H           3.7320   -0.7294    0.0000 H       1  UNL1        0.2100
    198 H           3.9399  -11.8494    0.0000 H       1  UNL1        0.0671
    199 H           2.0000   -2.3494    0.0000 H       1  UNL1        0.2100
    200 H           8.8843    9.9034    0.0000 H       1  UNL1        0.0671
    201 H           3.4030  -13.1594    0.0000 H       1  UNL1        0.0648
    202 H           5.6720  -12.2294    0.0000 H       1  UNL1        0.0621
    203 H           4.8059  -13.3494    0.0000 H       1  UNL1        0.0646
    204 H           8.0054   11.0134    0.0000 H       1  UNL1        0.0648
    205 H           9.9278   12.5357    0.0000 H       1  UNL1        0.0647
    206 H           8.5272   12.3295    0.0000 H       1  UNL1        0.0647
    207 H           2.0000  -11.3494    0.0000 H       1  UNL1        0.2101
    208 H           5.6910  -13.5763    0.0000 H       1  UNL1        0.0255
    209 H           6.5380  -13.3494    0.0000 H       1  UNL1        0.0255
    210 H           6.3110  -12.5024    0.0000 H       1  UNL1        0.0255
    211 H           8.8959    8.9035    0.0000 H       1  UNL1        0.2101
    212 H           2.5369  -13.6594    0.0000 H       1  UNL1        0.2100
    213 H           9.1642   13.7996    0.0000 H       1  UNL1        0.0584
    214 H           8.7736   13.1047    0.0000 H       1  UNL1        0.0584
    215 H           4.8059  -14.3494    0.0000 H       1  UNL1        0.2100
    216 H           7.1452   10.5034    0.0000 H       1  UNL1        0.2100
    217 H           7.6554   12.8194    0.0000 H       1  UNL1        0.2100
    218 H          10.2360   14.3494    0.0000 H       1  UNL1        0.2095
@<TRIPOS>BOND
     1     1    51    1
     2     1    65    1
     3     2    49    1
     4     2   144    1
     5     3    62    1
     6     3    67    1
     7     4    62    2
     8     5    65    1
     9     5    69    1
    10     6    66    1
    11     6   158    1
    12     7    67    1
    13     7    74    1
    14     8    68    1
    15     8    76    1
    16     9    71    1
    17     9    77    1
    18    10    70    1
    19    10   165    1
    20    11    73    1
    21    11    80    1
    22    12    72    1
    23    12   168    1
    24    13    75    1
    25    13   170    1
    26    14    76    1
    27    14    82    1
    28    15    77    1
    29    15    85    1
    30    16    78    1
    31    16   180    1
    32    17    80    1
    33    17    90    1
    34    18    79    1
    35    18   184    1
    36    19    81    1
    37    19   186    1
    38    20    83    1
    39    20    93    1
    40    21    84    1
    41    21   193    1
    42    22    87    1
    43    22    94    1
    44    23    86    1
    45    23   194    1
    46    24    89    1
    47    24   197    1
    48    25    92    1
    49    25   199    1
    50    26    93    1
    51    26    98    1
    52    27    94    1
    53    27   101    1
    54    28    95    1
    55    28   207    1
    56    29    96    1
    57    29   211    1
    58    30    97    1
    59    30   212    1
    60    31    99    1
    61    31   215    1
    62    32   100    1
    63    32   216    1
    64    33   102    1
    65    33   217    1
    66    34   104    1
    67    34   218    1
    68    35    36    1
    69    35    38    1
    70    35    40    1
    71    35    50    1
    72    36    37    1
    73    36    45    1
    74    36   105    1
    75    37    39    1
    76    37    46    1
    77    37    53    1
    78    38    43    1
    79    38    47    1
    80    38    55    1
    81    39    41    1
    82    39    42    1
    83    39   106    1
    84    40    41    1
    85    40   107    1
    86    40   108    1
    87    41   109    1
    88    41   110    1
    89    42    51    1
    90    42    59    1
    91    42    60    1
    92    43    44    1
    93    43    52    2
    94    44    48    1
    95    44    56    1
    96    44   111    1
    97    45    52    1
    98    45   112    1
    99    45   113    1
   100    46    54    1
   101    46   114    1
   102    46   115    1
   103    47    49    1
   104    47   116    1
   105    47   117    1
   106    48    49    1
   107    48    57    1
   108    48    62    1
   109    49   118    1
   110    50   119    1
   111    50   120    1
   112    50   121    1
   113    51    54    1
   114    51   122    1
   115    52   123    1
   116    53   124    1
   117    53   125    1
   118    53   126    1
   119    54   127    1
   120    54   128    1
   121    55   129    1
   122    55   130    1
   123    55   131    1
   124    56    58    1
   125    56   132    1
   126    56   133    1
   127    57    61    1
   128    57   134    1
   129    57   135    1
   130    58    61    1
   131    58    63    1
   132    58    64    1
   133    59   136    1
   134    59   137    1
   135    59   138    1
   136    60   139    1
   137    60   140    1
   138    60   141    1
   139    61   142    1
   140    61   143    1
   141    63   148    1
   142    63   149    1
   143    63   150    1
   144    64   145    1
   145    64   146    1
   146    64   147    1
   147    65    66    1
   148    65   151    1
   149    66    68    1
   150    66   152    1
   151    67    71    1
   152    67   153    1
   153    68    70    1
   154    68   154    1
   155    69    70    1
   156    69    73    1
   157    69   155    1
   158    70   156    1
   159    71    72    1
   160    71   157    1
   161    72    75    1
   162    72   159    1
   163    73   160    1
   164    73   161    1
   165    74    75    1
   166    74   162    1
   167    74   163    1
   168    75   164    1
   169    76    78    1
   170    76   166    1
   171    77    79    1
   172    77   167    1
   173    78    81    1
   174    78   169    1
   175    79    84    1
   176    79   171    1
   177    80    86    1
   178    80   172    1
   179    81    83    1
   180    81   173    1
   181    82    83    1
   182    82    88    1
   183    82   174    1
   184    83   175    1
   185    84    87    1
   186    84   176    1
   187    85    87    1
   188    85    91    1
   189    85   177    1
   190    86    89    1
   191    86   178    1
   192    87   179    1
   193    88   181    1
   194    88   182    1
   195    88   183    1
   196    89    92    1
   197    89   185    1
   198    90    92    1
   199    90   187    1
   200    90   188    1
   201    91   189    1
   202    91   190    1
   203    91   191    1
   204    92   192    1
   205    93    95    1
   206    93   195    1
   207    94    96    1
   208    94   196    1
   209    95    97    1
   210    95   198    1
   211    96   100    1
   212    96   200    1
   213    97    99    1
   214    97   201    1
   215    98    99    1
   216    98   103    1
   217    98   202    1
   218    99   203    1
   219   100   102    1
   220   100   204    1
   221   101   102    1
   222   101   104    1
   223   101   205    1
   224   102   206    1
   225   103   208    1
   226   103   209    1
   227   103   210    1
   228   104   213    1
   229   104   214    1
