@<TRIPOS>MOLECULE
IMPHY012260
 19 18 0 0 0
SMALL
GASTEIGER

@<TRIPOS>ATOM
      1 O           2.5369    1.0000    0.0000 O.2     1  UNL1       -0.5114
      2 C           4.2690    1.0000    0.0000 C.3     1  UNL1        0.0041
      3 C           5.1350    0.5000    0.0000 C.3     1  UNL1       -0.0491
      4 C           3.4030    0.5000    0.0000 C.2     1  UNL1        0.0899
      5 C           6.0010    1.0000    0.0000 C.3     1  UNL1       -0.0649
      6 C           3.4030   -0.5000    0.0000 C.2     1  UNL1       -0.0498
      7 C           2.5369   -1.0000    0.0000 C.3     1  UNL1       -0.0434
      8 H           4.6675    1.4750    0.0000 H       1  UNL1        0.0343
      9 H           3.8705    1.4750    0.0000 H       1  UNL1        0.0343
     10 H           4.7365    0.0251    0.0000 H       1  UNL1        0.0267
     11 H           5.5335    0.0251    0.0000 H       1  UNL1        0.0267
     12 H           6.3110    0.4631    0.0000 H       1  UNL1        0.0230
     13 H           6.5380    1.3100    0.0000 H       1  UNL1        0.0230
     14 H           5.6910    1.5369    0.0000 H       1  UNL1        0.0230
     15 H           3.9399   -0.8100    0.0000 H       1  UNL1        0.0602
     16 H           2.2269   -0.4631    0.0000 H       1  UNL1        0.0273
     17 H           2.0000   -1.3100    0.0000 H       1  UNL1        0.0273
     18 H           2.8469   -1.5369    0.0000 H       1  UNL1        0.0273
     19 H           2.0000    0.6900    0.0000 H       1  UNL1        0.2916
@<TRIPOS>BOND
     1     1     4    1
     2     1    19    1
     3     2     3    1
     4     2     4    1
     5     2     8    1
     6     2     9    1
     7     3     5    1
     8     3    10    1
     9     3    11    1
    10     4     6    2
    11     5    12    1
    12     5    13    1
    13     5    14    1
    14     6     7    1
    15     6    15    1
    16     7    16    1
    17     7    17    1
    18     7    18    1
