@<TRIPOS>MOLECULE
IMPHY009744
 26 26 0 0 0
SMALL
GASTEIGER

@<TRIPOS>ATOM
      1 O           4.2690    2.0000    0.0000 O.3     1  UNL1       -0.4915
      2 O           2.5369    1.0000    0.0000 O.3     1  UNL1       -0.5033
      3 C           6.0010   -1.0000    0.0000 C.3     1  UNL1       -0.0278
      4 C           5.1350   -0.5000    0.0000 C.ar    1  UNL1       -0.0437
      5 C           6.0010   -2.0000    0.0000 C.3     1  UNL1       -0.0519
      6 C           5.1350    0.5000    0.0000 C.ar    1  UNL1       -0.0131
      7 C           4.2690   -1.0000    0.0000 C.ar    1  UNL1       -0.0549
      8 C           4.2690    1.0000    0.0000 C.ar    1  UNL1        0.1615
      9 C           6.8671   -2.5000    0.0000 C.3     1  UNL1       -0.0650
     10 C           3.4030   -0.5000    0.0000 C.ar    1  UNL1       -0.0163
     11 C           3.4030    0.5000    0.0000 C.ar    1  UNL1        0.1585
     12 C           5.1350    2.5000    0.0000 C.3     1  UNL1        0.0790
     13 H           6.6116   -1.1077    0.0000 H       1  UNL1        0.0313
     14 H           6.2131   -0.4174    0.0000 H       1  UNL1        0.0313
     15 H           5.3905   -1.8923    0.0000 H       1  UNL1        0.0266
     16 H           5.7890   -2.5826    0.0000 H       1  UNL1        0.0266
     17 H           5.6720    0.8100    0.0000 H       1  UNL1        0.0658
     18 H           4.2690   -1.6200    0.0000 H       1  UNL1        0.0621
     19 H           6.5571   -3.0369    0.0000 H       1  UNL1        0.0230
     20 H           7.4040   -2.8100    0.0000 H       1  UNL1        0.0230
     21 H           7.1771   -1.9631    0.0000 H       1  UNL1        0.0230
     22 H           2.8660   -0.8100    0.0000 H       1  UNL1        0.0655
     23 H           2.0000    0.6900    0.0000 H       1  UNL1        0.2923
     24 H           5.4450    1.9631    0.0000 H       1  UNL1        0.0660
     25 H           5.6720    2.8100    0.0000 H       1  UNL1        0.0660
     26 H           4.8250    3.0369    0.0000 H       1  UNL1        0.0660
@<TRIPOS>BOND
     1     1     8    1
     2     1    12    1
     3     2    11    1
     4     2    23    1
     5     3     4    1
     6     3     5    1
     7     3    13    1
     8     3    14    1
     9     4     6   ar
    10     4     7   ar
    11     5     9    1
    12     5    15    1
    13     5    16    1
    14     6     8   ar
    15     6    17    1
    16     7    10   ar
    17     7    18    1
    18     8    11   ar
    19     9    19    1
    20     9    20    1
    21     9    21    1
    22    10    11   ar
    23    10    22    1
    24    12    24    1
    25    12    25    1
    26    12    26    1
