@<TRIPOS>MOLECULE
IMPHY004696
 29 32 0 0 0
SMALL
GASTEIGER

@<TRIPOS>ATOM
      1 O           5.9065    2.1331    0.0000 O.2     1  UNL1       -0.4239
      2 O           7.6904    1.7588    0.0000 O.2     1  UNL1       -0.4237
      3 O           6.7634   -1.0944    0.0000 O.2     1  UNL1       -0.2861
      4 O           8.4155   -1.6676    0.0000 O.3     1  UNL1       -0.5058
      5 O           2.4170    1.2288    0.0000 O.3     1  UNL1       -0.5066
      6 O          11.0552    0.6909    0.0000 O.3     1  UNL1       -0.5065
      7 C           6.4033    0.5998    0.0000 C.ar    1  UNL1        0.1135
      8 C           5.4092    0.6024    0.0000 C.ar    1  UNL1        0.0352
      9 C           6.7123    1.5509    0.0000 C.ar    1  UNL1        0.3042
     10 C           8.0505    0.0646    0.0000 C.ar    1  UNL1        0.1063
     11 C           5.1028    1.5481    0.0000 C.ar    1  UNL1        0.1433
     12 C           7.0724   -0.1433    0.0000 C.ar    1  UNL1        0.2076
     13 C           8.3596    1.0156    0.0000 C.ar    1  UNL1        0.1496
     14 C           4.7276   -0.1771    0.0000 C.ar    1  UNL1       -0.0467
     15 C           8.7355   -0.7202    0.0000 C.ar    1  UNL1        0.1347
     16 C           4.0936    1.7798    0.0000 C.ar    1  UNL1        0.0229
     17 C           9.3750    1.2479    0.0000 C.ar    1  UNL1        0.0232
     18 C           3.7133    0.0312    0.0000 C.ar    1  UNL1       -0.0194
     19 C           3.3942    1.0163    0.0000 C.ar    1  UNL1        0.1204
     20 C           9.7560   -0.5114    0.0000 C.ar    1  UNL1        0.0223
     21 C          10.0779    0.4792    0.0000 C.ar    1  UNL1        0.1239
     22 H           4.9255   -0.7647    0.0000 H       1  UNL1        0.0626
     23 H           3.9094    2.3718    0.0000 H       1  UNL1        0.0691
     24 H           9.5597    1.8397    0.0000 H       1  UNL1        0.0691
     25 H           3.2998   -0.4307    0.0000 H       1  UNL1        0.0654
     26 H          10.1691   -0.9738    0.0000 H       1  UNL1        0.0691
     27 H           8.8250   -2.1331    0.0000 H       1  UNL1        0.2922
     28 H           2.0000    0.7700    0.0000 H       1  UNL1        0.2921
     29 H          11.4719    0.2317    0.0000 H       1  UNL1        0.2921
@<TRIPOS>BOND
     1     1     9   ar
     2     1    11   ar
     3     2     9   ar
     4     2    13   ar
     5     3    12    2
     6     4    15    1
     7     4    27    1
     8     5    19    1
     9     5    28    1
    10     6    21    1
    11     6    29    1
    12     7     8   ar
    13     7     9   ar
    14     7    12   ar
    15     8    11   ar
    16     8    14   ar
    17    10    12   ar
    18    10    13   ar
    19    10    15   ar
    20    11    16   ar
    21    13    17   ar
    22    14    18   ar
    23    14    22    1
    24    15    20   ar
    25    16    19   ar
    26    16    23    1
    27    17    21   ar
    28    17    24    1
    29    18    19   ar
    30    18    25    1
    31    20    21   ar
    32    20    26    1
