@<TRIPOS>MOLECULE
IMPHY000525
 16 17 0 0 0
SMALL
GASTEIGER

@<TRIPOS>ATOM
      1 O           0.5795   -1.8041    0.0000 O.3     1  UNL1       -0.4314
      2 C           1.3999   -1.8904    0.0000 C.3     1  UNL1        0.4295
      3 O           1.7355   -1.1367    0.0000 O.3     1  UNL1       -0.4345
      4 C           1.1224   -0.5846    0.0000 C.ar    1  UNL1        0.1799
      5 C           0.4079   -0.9971    0.0000 C.ar    1  UNL1        0.2131
      6 C           1.1224    0.2404    0.0000 C.ar    1  UNL1        0.0500
      7 C           0.4079    0.6529    0.0000 C.ar    1  UNL1        0.1199
      8 C          -0.3065    0.2404    0.0000 C.ar    1  UNL1        0.1820
      9 C          -0.3065   -0.5846    0.0000 C.ar    1  UNL1        0.2095
     10 C           0.4079    1.4779    0.0000 C.2     1  UNL1        0.3909
     11 O          -0.3065    1.8904    0.0000 O.co2   1  UNL1       -0.2404
     12 O           1.1224    1.8904    0.0000 O.co2   1  UNL1       -0.2404
     13 O          -1.0210   -0.9971    0.0000 O.3     1  UNL1       -0.4653
     14 C          -1.0210   -1.8221    0.0000 C.3     1  UNL1        0.2528
     15 O          -1.0210    0.6529    0.0000 O.3     1  UNL1       -0.4680
     16 C          -1.7355    0.2404    0.0000 C.3     1  UNL1        0.2526
@<TRIPOS>BOND
     1     1     2    1
     2     1     5    1
     3     2     3    1
     4     3     4    1
     5     4     5   ar
     6     4     6   ar
     7     5     9   ar
     8     6     7   ar
     9     7     8   ar
    10     7    10    1
    11     8     9   ar
    12     8    15    1
    13     9    13    1
    14    10    11   ar
    15    10    12   ar
    16    13    14    1
    17    15    16    1
