@<TRIPOS>MOLECULE
IMPHY001440
 90 93 0 0 0
SMALL
GASTEIGER

@<TRIPOS>ATOM
      1 O           6.3718   -3.7990    0.0000 O.3     1  UNL1       -0.3684
      2 O           7.5503   -2.3635    0.0000 O.3     1  UNL1       -0.4529
      3 O           8.0300   -1.6215    0.0000 O.3     1  UNL1       -0.4582
      4 O           3.7197   -1.1424    0.0000 O.3     1  UNL1       -0.4608
      5 O           8.7056    0.0095    0.0000 O.3     1  UNL1       -0.3839
      6 O           4.0925    0.0095    0.0000 O.3     1  UNL1       -0.4567
      7 O           4.7681    1.6404    0.0000 O.3     1  UNL1       -0.4533
      8 O           8.8110    2.4214    0.0000 O.3     1  UNL1       -0.4570
      9 O           9.0182   -3.2829    0.0000 O.2     1  UNL1       -0.2511
     10 O           9.2548   -0.3968    0.0000 O.2     1  UNL1       -0.2512
     11 O           3.0384   -2.7348    0.0000 O.2     1  UNL1       -0.2512
     12 O           4.0925    1.7415    0.0000 O.2     1  UNL1       -0.2512
     13 O           5.9928    2.8652    0.0000 O.2     1  UNL1       -0.2511
     14 O           7.5863    3.6462    0.0000 O.2     1  UNL1       -0.2511
     15 C           6.3991   -1.2971    0.0000 C.3     1  UNL1        0.0557
     16 C           5.4752   -0.9144    0.0000 C.3     1  UNL1        0.0559
     17 C           6.5509   -2.3276    0.0000 C.3     1  UNL1        0.1694
     18 C           7.3229   -0.9144    0.0000 C.3     1  UNL1        0.1398
     19 C           5.7295   -2.9681    0.0000 C.3     1  UNL1        0.1045
     20 C           4.6391   -1.5357    0.0000 C.3     1  UNL1        0.1149
     21 C           7.7056    0.0095    0.0000 C.3     1  UNL1        0.1156
     22 C           5.0925    0.0095    0.0000 C.3     1  UNL1        0.1528
     23 C           4.7671   -2.5694    0.0000 C.3     1  UNL1        0.0152
     24 C           7.3229    0.9333    0.0000 C.3     1  UNL1        0.0224
     25 C           7.2001   -3.1532    0.0000 C.3     1  UNL1        0.0909
     26 C           5.4752    0.9333    0.0000 C.3     1  UNL1        0.1624
     27 C           6.3991    1.3160    0.0000 C.2     1  UNL1       -0.0151
     28 C           4.5513   -0.5317    0.0000 C.3     1  UNL1       -0.0521
     29 C           8.3787    0.7512    0.0000 C.3     1  UNL1        0.0215
     30 C           8.1039    1.7143    0.0000 C.3     1  UNL1        0.1270
     31 C           7.1408    1.9891    0.0000 C.2     1  UNL1       -0.0291
     32 C           7.6206    2.0442    0.0000 C.3     1  UNL1       -0.0532
     33 C           8.4338    1.2310    0.0000 C.3     1  UNL1       -0.0532
     34 C           6.9133    2.9629    0.0000 C.3     1  UNL1       -0.0399
     35 C           8.0189   -3.2470    0.0000 C.2     1  UNL1        0.3046
     36 C           8.9960   -1.3627    0.0000 C.2     1  UNL1        0.3043
     37 C           2.9194   -1.7419    0.0000 C.2     1  UNL1        0.3042
     38 C           3.5925    0.8755    0.0000 C.2     1  UNL1        0.3043
     39 C           5.0269    2.6064    0.0000 C.2     1  UNL1        0.3046
     40 C           7.4881   -4.0945    0.0000 C.3     1  UNL1        0.0333
     41 C           9.9023   -1.7853    0.0000 C.3     1  UNL1        0.0332
     42 C           8.5522    3.3874    0.0000 C.2     1  UNL1        0.3045
     43 C           2.0000   -1.3486    0.0000 C.3     1  UNL1        0.0332
     44 C           2.5925    0.8755    0.0000 C.3     1  UNL1        0.0332
     45 C           4.3198    3.3135    0.0000 C.3     1  UNL1        0.0333
     46 C           9.2593    4.0945    0.0000 C.3     1  UNL1        0.0333
     47 H           7.1844   -1.6224    0.0000 H       1  UNL1        0.0386
     48 H           7.9310   -0.7935    0.0000 H       1  UNL1        0.0768
     49 H           5.2132   -3.6433    0.0000 H       1  UNL1        0.0638
     50 H           4.1436   -1.9084    0.0000 H       1  UNL1        0.0741
     51 H           4.7480    0.5250    0.0000 H       1  UNL1        0.0782
     52 H           4.1479   -2.5392    0.0000 H       1  UNL1        0.0327
     53 H           4.6314   -3.1744    0.0000 H       1  UNL1        0.0327
     54 H           7.5820   -3.6417    0.0000 H       1  UNL1        0.0601
     55 H           7.6880   -2.7707    0.0000 H       1  UNL1        0.0601
     56 H           5.5961    1.5414    0.0000 H       1  UNL1        0.0820
     57 H           4.7886    0.0411    0.0000 H       1  UNL1        0.0238
     58 H           3.9785   -0.2945    0.0000 H       1  UNL1        0.0238
     59 H           4.3140   -1.1045    0.0000 H       1  UNL1        0.0238
     60 H           8.7532    0.2570    0.0000 H       1  UNL1        0.0334
     61 H           8.9334    1.0282    0.0000 H       1  UNL1        0.0334
     62 H           8.7041    1.5587    0.0000 H       1  UNL1        0.0783
     63 H           8.2195    1.8837    0.0000 H       1  UNL1        0.0239
     64 H           7.7810    2.6430    0.0000 H       1  UNL1        0.0239
     65 H           7.0217    2.2046    0.0000 H       1  UNL1        0.0239
     66 H           8.5942    0.6321    0.0000 H       1  UNL1        0.0239
     67 H           9.0326    1.3914    0.0000 H       1  UNL1        0.0239
     68 H           8.2733    1.8298    0.0000 H       1  UNL1        0.0239
     69 H           9.0156    0.5464    0.0000 H       1  UNL1        0.2104
     70 H           7.5170    3.1040    0.0000 H       1  UNL1        0.0276
     71 H           6.7722    3.5667    0.0000 H       1  UNL1        0.0276
     72 H           6.3095    2.8219    0.0000 H       1  UNL1        0.0276
     73 H           6.9626   -3.7654    0.0000 H       1  UNL1        0.0342
     74 H           7.1590   -4.6199    0.0000 H       1  UNL1        0.0342
     75 H           8.0135   -4.4235    0.0000 H       1  UNL1        0.0342
     76 H           9.6403   -2.3472    0.0000 H       1  UNL1        0.0342
     77 H          10.4642   -2.0473    0.0000 H       1  UNL1        0.0342
     78 H          10.1643   -1.2234    0.0000 H       1  UNL1        0.0342
     79 H           2.2439   -0.7786    0.0000 H       1  UNL1        0.0342
     80 H           1.4300   -1.1047    0.0000 H       1  UNL1        0.0342
     81 H           1.7561   -1.9186    0.0000 H       1  UNL1        0.0342
     82 H           2.5925    1.4955    0.0000 H       1  UNL1        0.0342
     83 H           1.9725    0.8755    0.0000 H       1  UNL1        0.0342
     84 H           2.5925    0.2555    0.0000 H       1  UNL1        0.0342
     85 H           4.7582    3.7519    0.0000 H       1  UNL1        0.0342
     86 H           3.8814    3.7519    0.0000 H       1  UNL1        0.0342
     87 H           3.8814    2.8751    0.0000 H       1  UNL1        0.0342
     88 H           9.6977    3.6560    0.0000 H       1  UNL1        0.0342
     89 H           9.6977    4.5329    0.0000 H       1  UNL1        0.0342
     90 H           8.8209    4.5329    0.0000 H       1  UNL1        0.0342
@<TRIPOS>BOND
     1     1    19    1
     2     1    25    1
     3    17     2    1
     4     2    35    1
     5    18     3    1
     6     3    36    1
     7    20     4    1
     8     4    37    1
     9    21     5    1
    10     5    69    1
    11    22     6    1
    12     6    38    1
    13    26     7    1
    14     7    39    1
    15    30     8    1
    16     8    42    1
    17     9    35    2
    18    10    36    2
    19    11    37    2
    20    12    38    2
    21    13    39    2
    22    14    42    2
    23    15    16    1
    24    15    17    1
    25    15    18    1
    26    15    47    1
    27    16    20    1
    28    16    22    1
    29    16    28    1
    30    17    19    1
    31    17    25    1
    32    18    21    1
    33    18    48    1
    34    19    23    1
    35    19    49    1
    36    20    23    1
    37    20    50    1
    38    21    24    1
    39    21    29    1
    40    22    26    1
    41    22    51    1
    42    23    52    1
    43    23    53    1
    44    24    27    1
    45    24    32    1
    46    24    33    1
    47    25    54    1
    48    25    55    1
    49    26    27    1
    50    26    56    1
    51    27    31    2
    52    28    57    1
    53    28    58    1
    54    28    59    1
    55    29    30    1
    56    29    60    1
    57    29    61    1
    58    30    31    1
    59    30    62    1
    60    31    34    1
    61    32    63    1
    62    32    64    1
    63    32    65    1
    64    33    66    1
    65    33    67    1
    66    33    68    1
    67    34    70    1
    68    34    71    1
    69    34    72    1
    70    35    40    1
    71    36    41    1
    72    37    43    1
    73    38    44    1
    74    39    45    1
    75    40    73    1
    76    40    74    1
    77    40    75    1
    78    41    76    1
    79    41    77    1
    80    41    78    1
    81    42    46    1
    82    43    79    1
    83    43    80    1
    84    43    81    1
    85    44    82    1
    86    44    83    1
    87    44    84    1
    88    45    85    1
    89    45    86    1
    90    45    87    1
    91    46    88    1
    92    46    89    1
    93    46    90    1
