@<TRIPOS>MOLECULE
IMPHY011836
 48 52 0 0 0
SMALL
GASTEIGER

@<TRIPOS>ATOM
      1 O           2.5415    1.2362    0.0000 O.3     1  UNL1       -0.4546
      2 O           7.3302   -1.3275    0.0000 O.3     1  UNL1       -0.4562
      3 O           3.4228    3.6769    0.0000 O.3     1  UNL1       -0.3732
      4 O           1.4166    2.7022    0.0000 O.2     1  UNL1       -0.2472
      5 O           8.6854   -0.1305    0.0000 O.2     1  UNL1       -0.2505
      6 O           4.8965   -3.7068    0.0000 O.2     1  UNL1       -0.4706
      7 C           5.3131    1.1530    0.0000 C.3     1  UNL1        0.0149
      8 C           5.6551    2.0927    0.0000 C.3     1  UNL1        0.0179
      9 C           5.9703    0.3449    0.0000 C.3     1  UNL1       -0.0084
     10 C           6.9974    0.5178    0.0000 C.3     1  UNL1        0.0624
     11 C           6.6780    2.2894    0.0000 C.3     1  UNL1       -0.0430
     12 C           3.6816    2.7110    0.0000 C.3     1  UNL1        0.1864
     13 C           3.9404    1.7450    0.0000 C.3     1  UNL1        0.1254
     14 C           7.3537    1.4966    0.0000 C.3     1  UNL1       -0.0390
     15 C           5.5757   -0.6658    0.0000 C.3     1  UNL1       -0.0047
     16 C           5.9972    3.0324    0.0000 C.3     1  UNL1       -0.0557
     17 C           5.1004   -0.1484    0.0000 C.3     1  UNL1       -0.0583
     18 C           4.0522    4.0596    0.0000 C.2     1  UNL1       -0.0420
     19 C           4.9182    3.5596    0.0000 C.2     1  UNL1       -0.0444
     20 C           6.2602   -1.5076    0.0000 C.3     1  UNL1        0.1315
     21 C           2.2827    2.2022    0.0000 C.2     1  UNL1        0.3443
     22 C           7.7013   -0.3079    0.0000 C.2     1  UNL1        0.3113
     23 C           5.9074   -2.4433    0.0000 C.ar    1  UNL1        0.0304
     24 C           6.4570   -3.2788    0.0000 C.ar    1  UNL1       -0.0172
     25 C           4.9430   -2.7078    0.0000 C.ar    1  UNL1        0.0983
     26 C           5.8322   -4.0596    0.0000 C.ar    1  UNL1        0.0921
     27 H           4.7668    0.5019    0.0000 H       1  UNL1        0.0352
     28 H           7.8340    0.6687    0.0000 H       1  UNL1        0.0419
     29 H           6.4585    2.8692    0.0000 H       1  UNL1        0.0272
     30 H           7.2118    2.6049    0.0000 H       1  UNL1        0.0272
     31 H           4.1604    0.9240    0.0000 H       1  UNL1        0.0782
     32 H           7.7498    1.9736    0.0000 H       1  UNL1        0.0273
     33 H           7.8914    1.1880    0.0000 H       1  UNL1        0.0273
     34 H           5.1687   -1.1336    0.0000 H       1  UNL1        0.0310
     35 H           5.0453   -0.3449    0.0000 H       1  UNL1        0.0310
     36 H           5.4146    3.2445    0.0000 H       1  UNL1        0.0236
     37 H           6.2092    3.6150    0.0000 H       1  UNL1        0.0236
     38 H           6.5798    2.8204    0.0000 H       1  UNL1        0.0236
     39 H           5.4063   -0.6878    0.0000 H       1  UNL1        0.0235
     40 H           4.5611   -0.4543    0.0000 H       1  UNL1        0.0235
     41 H           4.7946    0.3909    0.0000 H       1  UNL1        0.0235
     42 H           3.8167    4.6332    0.0000 H       1  UNL1        0.0604
     43 H           5.5147    3.7288    0.0000 H       1  UNL1        0.0606
     44 H           6.6542   -1.9864    0.0000 H       1  UNL1        0.0786
     45 H           2.8239    3.8374    0.0000 H       1  UNL1        0.2113
     46 H           7.0763   -3.3076    0.0000 H       1  UNL1        0.0653
     47 H           4.4589   -2.3205    0.0000 H       1  UNL1        0.1033
     48 H           5.9962   -4.6575    0.0000 H       1  UNL1        0.1029
@<TRIPOS>BOND
     1     1    13    1
     2     1    21    1
     3     2    20    1
     4     2    22    1
     5    12     3    1
     6     3    45    1
     7     4    21    2
     8     5    22    2
     9     6    25   ar
    10     6    26   ar
    11     7     8    1
    12     7     9    1
    13     7    13    1
    14     7    27    1
    15     8    11    1
    16     8    12    1
    17     8    16    1
    18     9    10    1
    19     9    15    1
    20     9    17    1
    21    10    14    1
    22    10    22    1
    23    10    28    1
    24    11    14    1
    25    11    29    1
    26    11    30    1
    27    12    18    1
    28    12    21    1
    29    13    19    1
    30    13    31    1
    31    14    32    1
    32    14    33    1
    33    15    20    1
    34    15    34    1
    35    15    35    1
    36    16    36    1
    37    16    37    1
    38    16    38    1
    39    17    39    1
    40    17    40    1
    41    17    41    1
    42    18    19    2
    43    18    42    1
    44    19    43    1
    45    20    23    1
    46    20    44    1
    47    23    24   ar
    48    23    25   ar
    49    24    26   ar
    50    24    46    1
    51    25    47    1
    52    26    48    1
