@<TRIPOS>MOLECULE
IMPHY016200
 69 68 0 0 0
SMALL
GASTEIGER

@<TRIPOS>ATOM
      1 O           2.5369   -0.2500    0.0000 O.3     1  UNL1       -0.4806
      2 O           3.4030   -1.7500    0.0000 O.2     1  UNL1       -0.2510
      3 C          18.9914    1.2500    0.0000 C.3     1  UNL1       -0.0531
      4 C          19.8574    1.7500    0.0000 C.3     1  UNL1       -0.0531
      5 C          18.1254    1.7500    0.0000 C.3     1  UNL1       -0.0531
      6 C          20.7235    1.2500    0.0000 C.3     1  UNL1       -0.0531
      7 C          17.2594    1.2500    0.0000 C.3     1  UNL1       -0.0530
      8 C          21.5895    1.7500    0.0000 C.3     1  UNL1       -0.0531
      9 C          16.3933    1.7500    0.0000 C.3     1  UNL1       -0.0522
     10 C          22.4555    1.2500    0.0000 C.3     1  UNL1       -0.0533
     11 C           6.8671   -0.7500    0.0000 C.3     1  UNL1       -0.0530
     12 C           7.7331   -0.2500    0.0000 C.3     1  UNL1       -0.0530
     13 C          15.5273    1.2500    0.0000 C.3     1  UNL1       -0.0421
     14 C           6.0010   -0.2500    0.0000 C.3     1  UNL1       -0.0526
     15 C           8.5991   -0.7500    0.0000 C.3     1  UNL1       -0.0522
     16 C          23.3215    1.7500    0.0000 C.3     1  UNL1       -0.0559
     17 C           5.1350   -0.7500    0.0000 C.3     1  UNL1       -0.0430
     18 C           9.4651   -0.2500    0.0000 C.3     1  UNL1       -0.0421
     19 C          14.6613    1.7500    0.0000 C.3     1  UNL1        0.0101
     20 C          24.1876    1.2500    0.0000 C.3     1  UNL1       -0.0653
     21 C           4.2690   -0.2500    0.0000 C.3     1  UNL1        0.0448
     22 C          10.3312   -0.7500    0.0000 C.3     1  UNL1        0.0101
     23 C          13.7953    1.2500    0.0000 C.1     1  UNL1       -0.0884
     24 C           3.4030   -0.7500    0.0000 C.2     1  UNL1        0.3047
     25 C          11.1972   -0.2500    0.0000 C.1     1  UNL1       -0.0884
     26 C          12.9292    0.7500    0.0000 C.1     1  UNL1       -0.0148
     27 C          12.0632    0.2500    0.0000 C.1     1  UNL1       -0.0148
     28 H          18.5929    0.7751    0.0000 H       1  UNL1        0.0265
     29 H          19.3899    0.7751    0.0000 H       1  UNL1        0.0265
     30 H          20.2560    2.2250    0.0000 H       1  UNL1        0.0265
     31 H          19.4589    2.2250    0.0000 H       1  UNL1        0.0265
     32 H          18.5239    2.2250    0.0000 H       1  UNL1        0.0265
     33 H          17.7269    2.2250    0.0000 H       1  UNL1        0.0265
     34 H          20.3249    0.7751    0.0000 H       1  UNL1        0.0265
     35 H          21.1220    0.7751    0.0000 H       1  UNL1        0.0265
     36 H          16.8608    0.7751    0.0000 H       1  UNL1        0.0265
     37 H          17.6579    0.7751    0.0000 H       1  UNL1        0.0265
     38 H          21.9880    2.2250    0.0000 H       1  UNL1        0.0265
     39 H          21.1910    2.2250    0.0000 H       1  UNL1        0.0265
     40 H          16.7919    2.2250    0.0000 H       1  UNL1        0.0266
     41 H          15.9948    2.2250    0.0000 H       1  UNL1        0.0266
     42 H          22.0570    0.7751    0.0000 H       1  UNL1        0.0265
     43 H          22.8540    0.7751    0.0000 H       1  UNL1        0.0265
     44 H           6.4685   -1.2250    0.0000 H       1  UNL1        0.0265
     45 H           7.2656   -1.2250    0.0000 H       1  UNL1        0.0265
     46 H           8.1316    0.2249    0.0000 H       1  UNL1        0.0265
     47 H           7.3346    0.2249    0.0000 H       1  UNL1        0.0265
     48 H          15.1288    0.7751    0.0000 H       1  UNL1        0.0274
     49 H          15.9258    0.7751    0.0000 H       1  UNL1        0.0274
     50 H           6.3996    0.2249    0.0000 H       1  UNL1        0.0265
     51 H           5.6025    0.2249    0.0000 H       1  UNL1        0.0265
     52 H           8.2006   -1.2250    0.0000 H       1  UNL1        0.0266
     53 H           8.9976   -1.2250    0.0000 H       1  UNL1        0.0266
     54 H          23.7201    2.2250    0.0000 H       1  UNL1        0.0263
     55 H          22.9230    2.2250    0.0000 H       1  UNL1        0.0263
     56 H           4.7365   -1.2250    0.0000 H       1  UNL1        0.0270
     57 H           5.5335   -1.2250    0.0000 H       1  UNL1        0.0270
     58 H           9.8637    0.2249    0.0000 H       1  UNL1        0.0274
     59 H           9.0666    0.2249    0.0000 H       1  UNL1        0.0274
     60 H          15.0598    2.2250    0.0000 H       1  UNL1        0.0398
     61 H          14.2628    2.2250    0.0000 H       1  UNL1        0.0398
     62 H           4.6675    0.2249    0.0000 H       1  UNL1        0.0377
     63 H           3.8705    0.2249    0.0000 H       1  UNL1        0.0377
     64 H          23.8776    0.7131    0.0000 H       1  UNL1        0.0230
     65 H          24.7245    0.9400    0.0000 H       1  UNL1        0.0230
     66 H          24.4976    1.7869    0.0000 H       1  UNL1        0.0230
     67 H           9.9326   -1.2250    0.0000 H       1  UNL1        0.0398
     68 H          10.7297   -1.2250    0.0000 H       1  UNL1        0.0398
     69 H           2.0000   -0.5600    0.0000 H       1  UNL1        0.2951
@<TRIPOS>BOND
     1     1    24    1
     2     1    69    1
     3     2    24    2
     4     3     4    1
     5     3     5    1
     6     3    28    1
     7     3    29    1
     8     4     6    1
     9     4    30    1
    10     4    31    1
    11     5     7    1
    12     5    32    1
    13     5    33    1
    14     6     8    1
    15     6    34    1
    16     6    35    1
    17     7     9    1
    18     7    36    1
    19     7    37    1
    20     8    10    1
    21     8    38    1
    22     8    39    1
    23     9    13    1
    24     9    40    1
    25     9    41    1
    26    10    16    1
    27    10    42    1
    28    10    43    1
    29    11    12    1
    30    11    14    1
    31    11    44    1
    32    11    45    1
    33    12    15    1
    34    12    46    1
    35    12    47    1
    36    13    19    1
    37    13    48    1
    38    13    49    1
    39    14    17    1
    40    14    50    1
    41    14    51    1
    42    15    18    1
    43    15    52    1
    44    15    53    1
    45    16    20    1
    46    16    54    1
    47    16    55    1
    48    17    21    1
    49    17    56    1
    50    17    57    1
    51    18    22    1
    52    18    58    1
    53    18    59    1
    54    19    23    1
    55    19    60    1
    56    19    61    1
    57    20    64    1
    58    20    65    1
    59    20    66    1
    60    21    24    1
    61    21    62    1
    62    21    63    1
    63    22    25    1
    64    22    67    1
    65    22    68    1
    66    23    26    3
    67    25    27    3
    68    26    27    1
