@<TRIPOS>MOLECULE
IMPHY013544
 61 64 0 0 0
SMALL
GASTEIGER

@<TRIPOS>ATOM
      1 O           8.1223   -2.0159    0.0000 O.3     1  UNL1       -0.4607
      2 O           4.6497    1.0156    0.0000 O.3     1  UNL1       -0.3716
      3 O           5.5103    1.5125    0.0000 O.2     1  UNL1       -0.2885
      4 O           2.8680    0.0052    0.0000 O.2     1  UNL1       -0.4970
      5 O           7.2762    2.5503    0.0000 O.2     1  UNL1       -0.4917
      6 O           9.8438   -2.0487    0.0000 O.2     1  UNL1       -0.2508
      7 C           7.2641   -0.5190    0.0000 C.3     1  UNL1        0.0226
      8 C           5.5320   -0.5190    0.0000 C.3     1  UNL1        0.0152
      9 C           6.3981   -0.0190    0.0000 C.3     1  UNL1        0.0429
     10 C           5.5320   -1.5190    0.0000 C.3     1  UNL1       -0.0227
     11 C           7.2641   -1.5190    0.0000 C.3     1  UNL1        0.1099
     12 C           6.3981   -2.0190    0.0000 C.3     1  UNL1       -0.0111
     13 C           8.1741   -0.0122    0.0000 C.3     1  UNL1        0.0031
     14 C           4.6381    0.0157    0.0000 C.3     1  UNL1        0.1210
     15 C           4.6381   -2.0537    0.0000 C.3     1  UNL1       -0.0187
     16 C           7.2641    0.4810    0.0000 C.3     1  UNL1       -0.0549
     17 C           5.5320    0.4810    0.0000 C.3     1  UNL1       -0.0558
     18 C           6.3820    1.0225    0.0000 C.2     1  UNL1        0.2016
     19 C           9.0134   -0.5404    0.0000 C.3     1  UNL1        0.0522
     20 C           8.1821    1.0294    0.0000 C.2     1  UNL1       -0.0233
     21 C           3.7320   -0.4982    0.0000 C.2     1  UNL1        0.1228
     22 C           3.7320   -1.5398    0.0000 C.2     1  UNL1       -0.0408
     23 C           7.2800    1.5503    0.0000 C.2     1  UNL1        0.1619
     24 C           8.9878   -1.5318    0.0000 C.2     1  UNL1        0.3079
     25 C           4.6497   -3.0536    0.0000 C.3     1  UNL1       -0.0586
     26 C           9.0501    1.5261    0.0000 C.3     1  UNL1       -0.0396
     27 C           3.7895    1.5256    0.0000 C.3     1  UNL1        0.0374
     28 C           2.0000   -0.4915    0.0000 C.3     1  UNL1        0.0784
     29 C           8.1403    3.0536    0.0000 C.3     1  UNL1        0.0789
     30 H           5.8588    0.2869    0.0000 H       1  UNL1        0.0395
     31 H           5.5368   -2.1390    0.0000 H       1  UNL1        0.0314
     32 H           7.2637   -2.1390    0.0000 H       1  UNL1        0.0740
     33 H           5.9995   -2.4939    0.0000 H       1  UNL1        0.0304
     34 H           6.7966   -2.4939    0.0000 H       1  UNL1        0.0304
     35 H           8.7180    0.2855    0.0000 H       1  UNL1        0.0359
     36 H           4.1042    0.3308    0.0000 H       1  UNL1        0.0683
     37 H           4.1042   -2.3688    0.0000 H       1  UNL1        0.0344
     38 H           7.8841    0.4810    0.0000 H       1  UNL1        0.0237
     39 H           7.2641    1.1010    0.0000 H       1  UNL1        0.0237
     40 H           6.6441    0.4810    0.0000 H       1  UNL1        0.0237
     41 H           6.1520    0.4810    0.0000 H       1  UNL1        0.0236
     42 H           5.5320    1.1010    0.0000 H       1  UNL1        0.0236
     43 H           4.9120    0.4810    0.0000 H       1  UNL1        0.0236
     44 H           9.6205   -0.6663    0.0000 H       1  UNL1        0.0384
     45 H           9.2452    0.0347    0.0000 H       1  UNL1        0.0384
     46 H           3.1963   -1.8519    0.0000 H       1  UNL1        0.0608
     47 H           4.0297   -3.0608    0.0000 H       1  UNL1        0.0235
     48 H           4.6568   -3.6736    0.0000 H       1  UNL1        0.0235
     49 H           5.2696   -3.0464    0.0000 H       1  UNL1        0.0235
     50 H           9.3580    0.9880    0.0000 H       1  UNL1        0.0276
     51 H           9.5882    1.8340    0.0000 H       1  UNL1        0.0276
     52 H           8.7422    2.0642    0.0000 H       1  UNL1        0.0276
     53 H           4.1057    2.0589    0.0000 H       1  UNL1        0.0524
     54 H           3.2562    1.8418    0.0000 H       1  UNL1        0.0524
     55 H           3.4733    0.9923    0.0000 H       1  UNL1        0.0524
     56 H           1.6921    0.0466    0.0000 H       1  UNL1        0.0660
     57 H           1.4619   -0.7994    0.0000 H       1  UNL1        0.0660
     58 H           2.3079   -1.0296    0.0000 H       1  UNL1        0.0660
     59 H           8.4523    2.5178    0.0000 H       1  UNL1        0.0660
     60 H           8.6760    3.3657    0.0000 H       1  UNL1        0.0660
     61 H           7.8282    3.5893    0.0000 H       1  UNL1        0.0660
@<TRIPOS>BOND
     1     1    11    1
     2     1    24    1
     3     2    14    1
     4     2    27    1
     5     3    18    2
     6     4    21    1
     7     4    28    1
     8     5    23    1
     9     5    29    1
    10     6    24    2
    11     7     9    1
    12     7    11    1
    13     7    13    1
    14     7    16    1
    15     8     9    1
    16     8    10    1
    17     8    14    1
    18     8    17    1
    19     9    18    1
    20     9    30    1
    21    10    12    1
    22    10    15    1
    23    10    31    1
    24    11    12    1
    25    11    32    1
    26    12    33    1
    27    12    34    1
    28    13    19    1
    29    13    20    1
    30    13    35    1
    31    14    21    1
    32    14    36    1
    33    15    22    1
    34    15    25    1
    35    15    37    1
    36    16    38    1
    37    16    39    1
    38    16    40    1
    39    17    41    1
    40    17    42    1
    41    17    43    1
    42    18    23    1
    43    19    24    1
    44    19    44    1
    45    19    45    1
    46    20    23    2
    47    20    26    1
    48    21    22    2
    49    22    46    1
    50    25    47    1
    51    25    48    1
    52    25    49    1
    53    26    50    1
    54    26    51    1
    55    26    52    1
    56    27    53    1
    57    27    54    1
    58    27    55    1
    59    28    56    1
    60    28    57    1
    61    28    58    1
    62    29    59    1
    63    29    60    1
    64    29    61    1
