@<TRIPOS>MOLECULE
IMPHY008822
 32 34 0 0 0
SMALL
GASTEIGER

@<TRIPOS>ATOM
      1 O           8.1301   -2.4182    0.0000 O.2     1  UNL1       -0.4530
      2 O           4.6000   -2.4424    0.0000 O.3     1  UNL1       -0.4715
      3 O           6.3817    0.6164    0.0000 O.3     1  UNL1       -0.2866
      4 O          11.6602   -0.3941    0.0000 O.3     1  UNL1       -0.4682
      5 O           8.1301    0.5818    0.0000 O.2     1  UNL1       -0.2862
      6 O          10.7156    3.1262    0.0000 O.3     1  UNL1       -0.2212
      7 O          11.6602   -2.4424    0.0000 O.3     1  UNL1       -0.2832
      8 C           8.9961   -0.9182    0.0000 C.ar    1  UNL1        0.0768
      9 C           7.2641   -0.9182    0.0000 C.ar    1  UNL1        0.1122
     10 C           7.2641   -1.9182    0.0000 C.ar    1  UNL1        0.1544
     11 C           9.8901   -0.3836    0.0000 C.ar    1  UNL1        0.0430
     12 C           8.9961   -1.9182    0.0000 C.ar    1  UNL1        0.1517
     13 C           8.1301   -0.4182    0.0000 C.ar    1  UNL1        0.2046
     14 C           5.4641   -0.8974    0.0000 C.ar    1  UNL1        0.0553
     15 C           6.3701   -0.3836    0.0000 C.ar    1  UNL1        0.2009
     16 C           5.4641   -1.9391    0.0000 C.ar    1  UNL1        0.1411
     17 C           6.3701   -2.4529    0.0000 C.ar    1  UNL1        0.0743
     18 C          10.7961   -0.8974    0.0000 C.ar    1  UNL1        0.1776
     19 C           4.6000   -0.3941    0.0000 C.3     1  UNL1        0.0580
     20 C          10.7271    2.1263    0.0000 C.3     1  UNL1        0.1452
     21 C           9.8901   -2.4529    0.0000 C.ar    1  UNL1        0.0828
     22 C           9.8785    0.6164    0.0000 C.2     1  UNL1        0.0012
     23 C          10.7961   -1.9391    0.0000 C.ar    1  UNL1        0.2323
     24 C          10.7387    1.1263    0.0000 C.2     1  UNL1        0.0034
     25 C           3.7320   -0.8908    0.0000 C.2     1  UNL1       -0.0297
     26 C          11.7271    2.1378    0.0000 C.3     1  UNL1        0.0375
     27 C           9.7272    2.1147    0.0000 C.3     1  UNL1        0.0375
     28 C           2.8679   -0.3874    0.0000 C.2     1  UNL1       -0.0475
     29 C           4.6038   -3.4424    0.0000 C.3     1  UNL1        0.2525
     30 C           2.0000   -0.8841    0.0000 C.3     1  UNL1        0.0260
     31 C           2.8718    0.6126    0.0000 C.3     1  UNL1        0.0260
     32 C          12.5282   -0.8908    0.0000 C.3     1  UNL1        0.2526
@<TRIPOS>BOND
     1     1    10   ar
     2     1    12   ar
     3     2    16    1
     4     2    29    1
     5     3    15    1
     6     4    18    1
     7     4    32    1
     8     5    13    2
     9     6    20    1
    10     7    23    1
    11     8    11   ar
    12     8    12   ar
    13     8    13   ar
    14     9    10   ar
    15     9    13   ar
    16     9    15   ar
    17    10    17   ar
    18    11    18   ar
    19    11    22    1
    20    12    21   ar
    21    14    15   ar
    22    14    16   ar
    23    14    19    1
    24    16    17   ar
    25    18    23   ar
    26    19    25    1
    27    20    24    1
    28    20    26    1
    29    20    27    1
    30    21    23   ar
    31    22    24    2
    32    25    28    2
    33    28    30    1
    34    28    31    1
