@<TRIPOS>MOLECULE
IMPHY000239
 25 26 0 0 0
SMALL
GASTEIGER

@<TRIPOS>ATOM
      1 O           5.4920   -1.1897    0.0000 O.2     1  UNL1       -0.4595
      2 O           2.0000   -1.1550    0.0000 O.3     1  UNL1       -0.4949
      3 O           3.7320    1.8450    0.0000 O.3     1  UNL1       -0.5058
      4 O           5.4804    1.8796    0.0000 O.2     1  UNL1       -0.2869
      5 C           4.5981    0.3450    0.0000 C.ar    1  UNL1        0.1054
      6 C           4.5981   -0.6550    0.0000 C.ar    1  UNL1        0.1457
      7 C           3.7320    0.8450    0.0000 C.ar    1  UNL1        0.1347
      8 C           3.7320   -1.1550    0.0000 C.ar    1  UNL1        0.0233
      9 C           5.4920    0.8797    0.0000 C.ar    1  UNL1        0.1963
     10 C           2.8660   -0.6550    0.0000 C.ar    1  UNL1        0.1271
     11 C           6.3981   -0.6758    0.0000 C.ar    1  UNL1        0.1062
     12 C           2.8660    0.3450    0.0000 C.ar    1  UNL1        0.0225
     13 C           6.3981    0.3658    0.0000 C.ar    1  UNL1        0.0237
     14 C           7.2622   -1.1792    0.0000 C.3     1  UNL1       -0.0062
     15 C           2.0000   -2.1550    0.0000 C.3     1  UNL1        0.0788
     16 H           3.7320   -1.7750    0.0000 H       1  UNL1        0.0691
     17 H           2.3291    0.6550    0.0000 H       1  UNL1        0.0691
     18 H           6.9338    0.6779    0.0000 H       1  UNL1        0.0689
     19 H           6.9501   -1.7149    0.0000 H       1  UNL1        0.0308
     20 H           7.7979   -1.4912    0.0000 H       1  UNL1        0.0308
     21 H           7.5742   -0.6434    0.0000 H       1  UNL1        0.0308
     22 H           3.1951    2.1550    0.0000 H       1  UNL1        0.2922
     23 H           1.3800   -2.1550    0.0000 H       1  UNL1        0.0660
     24 H           2.0000   -2.7750    0.0000 H       1  UNL1        0.0660
     25 H           2.6200   -2.1550    0.0000 H       1  UNL1        0.0660
@<TRIPOS>BOND
     1     1     6   ar
     2     1    11   ar
     3     2    10    1
     4     2    15    1
     5     3     7    1
     6     3    22    1
     7     4     9    2
     8     5     6   ar
     9     5     7   ar
    10     5     9   ar
    11     6     8   ar
    12     7    12   ar
    13     8    10   ar
    14     8    16    1
    15     9    13   ar
    16    10    12   ar
    17    11    13   ar
    18    11    14    1
    19    12    17    1
    20    13    18    1
    21    14    19    1
    22    14    20    1
    23    14    21    1
    24    15    23    1
    25    15    24    1
    26    15    25    1
