@<TRIPOS>MOLECULE
IMPHY007279
 58 60 0 0 0
SMALL
GASTEIGER

@<TRIPOS>ATOM
      1 O          10.6438   -1.5137    0.0000 O.3     1  UNL1       -0.3899
      2 O           7.1487   -1.3010    0.0000 O.3     1  UNL1       -0.4581
      3 O           5.6536   -1.1202    0.0000 O.3     1  UNL1       -0.3745
      4 O           4.5743    1.0169    0.0000 O.3     1  UNL1       -0.4547
      5 O           7.5088    0.3932    0.0000 O.2     1  UNL1       -0.2474
      6 O           2.9270    0.4817    0.0000 O.2     1  UNL1       -0.2449
      7 N           9.3869   -3.7690    0.0000 N.3     1  UNL1       -0.2895
      8 C           9.3869   -2.7690    0.0000 C.3     1  UNL1        0.0611
      9 C          10.3331   -2.4643    0.0000 C.3     1  UNL1        0.0758
     10 C          10.3331   -4.0737    0.0000 C.3     1  UNL1        0.0023
     11 C          10.9167   -3.2690    0.0000 C.3     1  UNL1       -0.0122
     12 C           8.4358   -2.4600    0.0000 C.2     1  UNL1       -0.0158
     13 C           8.4358   -4.0780    0.0000 C.3     1  UNL1        0.0182
     14 C           7.8480   -3.2690    0.0000 C.2     1  UNL1       -0.0661
     15 C           8.1268   -1.5089    0.0000 C.3     1  UNL1        0.1152
     16 C           5.8615   -0.1420    0.0000 C.3     1  UNL1        0.2012
     17 C           6.0694    0.8361    0.0000 C.3     1  UNL1       -0.0037
     18 C           4.8834    0.0659    0.0000 C.3     1  UNL1        0.1398
     19 C           6.8396   -0.3500    0.0000 C.2     1  UNL1        0.3435
     20 C           5.3263    1.5052    0.0000 C.3     1  UNL1       -0.0594
     21 C           7.0205    1.1451    0.0000 C.3     1  UNL1       -0.0594
     22 C           4.2142   -0.6773    0.0000 C.3     1  UNL1       -0.0244
     23 C           3.5962    1.2248    0.0000 C.2     1  UNL1        0.3395
     24 C           3.2872    2.1759    0.0000 C.ar    1  UNL1        0.0590
     25 C           3.9563    2.9190    0.0000 C.ar    1  UNL1       -0.0478
     26 C           2.3090    2.3838    0.0000 C.ar    1  UNL1       -0.0478
     27 C           3.6473    3.8701    0.0000 C.ar    1  UNL1       -0.0610
     28 C           2.0000    3.3349    0.0000 C.ar    1  UNL1       -0.0610
     29 C           2.6691    4.0780    0.0000 C.ar    1  UNL1       -0.0617
     30 H           9.3880   -1.9190    0.0000 H       1  UNL1        0.0536
     31 H          10.9456   -2.3681    0.0000 H       1  UNL1        0.0612
     32 H          10.0821   -4.6406    0.0000 H       1  UNL1        0.0428
     33 H          10.8705   -4.3830    0.0000 H       1  UNL1        0.0428
     34 H          11.3776   -3.6837    0.0000 H       1  UNL1        0.0303
     35 H          11.3776   -2.8543    0.0000 H       1  UNL1        0.0303
     36 H           7.8989   -4.3880    0.0000 H       1  UNL1        0.0470
     37 H           8.6880   -4.6444    0.0000 H       1  UNL1        0.0470
     38 H           7.2280   -3.2690    0.0000 H       1  UNL1        0.0586
     39 H           8.7408   -1.4226    0.0000 H       1  UNL1        0.0746
     40 H           8.1484   -0.8893    0.0000 H       1  UNL1        0.0746
     41 H          11.2504   -1.3859    0.0000 H       1  UNL1        0.2099
     42 H           6.5302    0.4212    0.0000 H       1  UNL1        0.0330
     43 H           4.2769    0.1948    0.0000 H       1  UNL1        0.0766
     44 H           5.7411    1.9660    0.0000 H       1  UNL1        0.0233
     45 H           4.8655    1.9201    0.0000 H       1  UNL1        0.0233
     46 H           4.9114    1.0445    0.0000 H       1  UNL1        0.0233
     47 H           7.2120    0.5555    0.0000 H       1  UNL1        0.0233
     48 H           7.6101    1.3367    0.0000 H       1  UNL1        0.0233
     49 H           6.8289    1.7348    0.0000 H       1  UNL1        0.0233
     50 H           3.7535   -0.2624    0.0000 H       1  UNL1        0.0266
     51 H           3.7994   -1.1380    0.0000 H       1  UNL1        0.0266
     52 H           4.6750   -1.0921    0.0000 H       1  UNL1        0.0266
     53 H           5.0639   -1.3118    0.0000 H       1  UNL1        0.2110
     54 H           4.5628    2.7901    0.0000 H       1  UNL1        0.0626
     55 H           1.8942    1.9231    0.0000 H       1  UNL1        0.0626
     56 H           4.0621    4.3308    0.0000 H       1  UNL1        0.0618
     57 H           1.3936    3.4638    0.0000 H       1  UNL1        0.0618
     58 H           2.4775    4.6677    0.0000 H       1  UNL1        0.0618
@<TRIPOS>BOND
     1     9     1    1
     2     1    41    1
     3     2    15    1
     4     2    19    1
     5    16     3    1
     6     3    53    1
     7    18     4    1
     8     4    23    1
     9     5    19    2
    10     6    23    2
    11     7     8    1
    12     7    10    1
    13     7    13    1
    14     8     9    1
    15     8    12    1
    16     8    30    1
    17     9    11    1
    18     9    31    1
    19    10    11    1
    20    10    32    1
    21    10    33    1
    22    11    34    1
    23    11    35    1
    24    12    14    2
    25    12    15    1
    26    13    14    1
    27    13    36    1
    28    13    37    1
    29    14    38    1
    30    15    39    1
    31    15    40    1
    32    16    17    1
    33    16    18    1
    34    16    19    1
    35    17    20    1
    36    17    21    1
    37    17    42    1
    38    18    22    1
    39    18    43    1
    40    20    44    1
    41    20    45    1
    42    20    46    1
    43    21    47    1
    44    21    48    1
    45    21    49    1
    46    22    50    1
    47    22    51    1
    48    22    52    1
    49    23    24    1
    50    24    25   ar
    51    24    26   ar
    52    25    27   ar
    53    25    54    1
    54    26    28   ar
    55    26    55    1
    56    27    29   ar
    57    27    56    1
    58    28    29   ar
    59    28    57    1
    60    29    58    1
