@<TRIPOS>MOLECULE
IMPHY007402
 48 50 0 0 0
SMALL
GASTEIGER

@<TRIPOS>ATOM
      1 O           4.2690    1.2500    0.0000 O.3     1  UNL1       -0.4185
      2 O           6.0010   -2.7500    0.0000 O.3     1  UNL1       -0.4185
      3 O           2.5369    0.2500    0.0000 O.3     1  UNL1       -0.5009
      4 O           2.5369   -1.7500    0.0000 O.3     1  UNL1       -0.5032
      5 O           6.0010   -4.7500    0.0000 O.3     1  UNL1       -0.5009
      6 O           7.7331   -5.7500    0.0000 O.3     1  UNL1       -0.5032
      7 O           6.8671   -1.2500    0.0000 O.2     1  UNL1       -0.2445
      8 O           3.4030    4.7500    0.0000 O.3     1  UNL1       -0.5032
      9 O           6.8671    4.7500    0.0000 O.3     1  UNL1       -0.5032
     10 O           5.1350    5.7500    0.0000 O.3     1  UNL1       -0.5009
     11 O           6.0010    1.2500    0.0000 O.2     1  UNL1       -0.2445
     12 O          10.3312   -3.2500    0.0000 O.3     1  UNL1       -0.4771
     13 O           9.4651   -1.7500    0.0000 O.2     1  UNL1       -0.2451
     14 C           5.1350   -1.2500    0.0000 C.ar    1  UNL1        0.0666
     15 C           4.2690    0.2500    0.0000 C.ar    1  UNL1        0.1776
     16 C           5.1350   -0.2500    0.0000 C.ar    1  UNL1       -0.0013
     17 C           3.4030   -0.2500    0.0000 C.ar    1  UNL1        0.2016
     18 C           4.2690   -1.7500    0.0000 C.ar    1  UNL1       -0.0023
     19 C           3.4030   -1.2500    0.0000 C.ar    1  UNL1        0.1628
     20 C           6.8671   -3.2500    0.0000 C.ar    1  UNL1        0.1776
     21 C           5.1350    2.7500    0.0000 C.ar    1  UNL1        0.0665
     22 C           6.0010   -1.7500    0.0000 C.2     1  UNL1        0.3448
     23 C           6.8671   -4.2500    0.0000 C.ar    1  UNL1        0.2016
     24 C           7.7331   -2.7500    0.0000 C.ar    1  UNL1       -0.0014
     25 C           8.5991   -3.2500    0.0000 C.ar    1  UNL1        0.0660
     26 C           5.1350    1.7500    0.0000 C.2     1  UNL1        0.3448
     27 C           7.7331   -4.7500    0.0000 C.ar    1  UNL1        0.1628
     28 C           6.0010    3.2500    0.0000 C.ar    1  UNL1       -0.0023
     29 C           4.2690    3.2500    0.0000 C.ar    1  UNL1       -0.0023
     30 C           8.5991   -4.2500    0.0000 C.ar    1  UNL1       -0.0023
     31 C           4.2690    4.2500    0.0000 C.ar    1  UNL1        0.1628
     32 C           6.0010    4.2500    0.0000 C.ar    1  UNL1        0.1628
     33 C           5.1350    4.7500    0.0000 C.ar    1  UNL1        0.2006
     34 C           9.4651   -2.7500    0.0000 C.2     1  UNL1        0.3370
     35 H           5.6720    0.0600    0.0000 H       1  UNL1        0.0664
     36 H           4.2690   -2.3700    0.0000 H       1  UNL1        0.0663
     37 H           7.7331   -2.1300    0.0000 H       1  UNL1        0.0664
     38 H           6.5380    2.9400    0.0000 H       1  UNL1        0.0663
     39 H           3.7320    2.9400    0.0000 H       1  UNL1        0.0663
     40 H           9.1360   -4.5600    0.0000 H       1  UNL1        0.0663
     41 H           2.0000   -0.0600    0.0000 H       1  UNL1        0.2924
     42 H           2.5369   -2.3700    0.0000 H       1  UNL1        0.2923
     43 H           6.0010   -5.3700    0.0000 H       1  UNL1        0.2924
     44 H           8.2700   -6.0600    0.0000 H       1  UNL1        0.2923
     45 H           2.8660    4.4400    0.0000 H       1  UNL1        0.2923
     46 H           7.4040    4.4400    0.0000 H       1  UNL1        0.2923
     47 H           5.6720    6.0600    0.0000 H       1  UNL1        0.2924
     48 H          10.8681   -2.9400    0.0000 H       1  UNL1        0.2954
@<TRIPOS>BOND
     1     1    15    1
     2     1    26    1
     3     2    20    1
     4     2    22    1
     5     3    17    1
     6     3    41    1
     7     4    19    1
     8     4    42    1
     9     5    23    1
    10     5    43    1
    11     6    27    1
    12     6    44    1
    13     7    22    2
    14     8    31    1
    15     8    45    1
    16     9    32    1
    17     9    46    1
    18    10    33    1
    19    10    47    1
    20    11    26    2
    21    12    34    1
    22    12    48    1
    23    13    34    2
    24    14    16   ar
    25    14    18   ar
    26    14    22    1
    27    15    16   ar
    28    15    17   ar
    29    16    35    1
    30    17    19   ar
    31    18    19   ar
    32    18    36    1
    33    20    23   ar
    34    20    24   ar
    35    21    26    1
    36    21    28   ar
    37    21    29   ar
    38    23    27   ar
    39    24    25   ar
    40    24    37    1
    41    25    30   ar
    42    25    34    1
    43    27    30   ar
    44    28    32   ar
    45    28    38    1
    46    29    31   ar
    47    29    39    1
    48    30    40    1
    49    31    33   ar
    50    32    33   ar
