@<TRIPOS>MOLECULE
IMPHY008121
 85 89 0 0 0
SMALL
GASTEIGER

@<TRIPOS>ATOM
      1 O           5.1350   -2.0000    0.0000 O.3     1  UNL1       -0.3313
      2 O           6.0010    2.5000    0.0000 O.3     1  UNL1       -0.3313
      3 O           6.8671   -2.0000    0.0000 O.3     1  UNL1       -0.4600
      4 O           5.1350    1.0000    0.0000 O.3     1  UNL1       -0.4601
      5 O           8.6270    1.0347    0.0000 O.3     1  UNL1       -0.4833
      6 O           5.1350   -5.0000    0.0000 O.3     1  UNL1       -0.3864
      7 O           6.8671   -4.0000    0.0000 O.3     1  UNL1       -0.3829
      8 O           3.4030   -4.0000    0.0000 O.3     1  UNL1       -0.3865
      9 O           3.4030    4.0000    0.0000 O.3     1  UNL1       -0.3864
     10 O           3.4030    2.0000    0.0000 O.3     1  UNL1       -0.3829
     11 O           5.1350    5.0000    0.0000 O.3     1  UNL1       -0.3865
     12 O           8.6155   -2.0346    0.0000 O.3     1  UNL1       -0.3868
     13 O           2.5369   -2.5000    0.0000 O.3     1  UNL1       -0.3924
     14 O           6.8671    5.0000    0.0000 O.3     1  UNL1       -0.3924
     15 O          12.9895    2.5342    0.0000 O.3     1  UNL1       -0.4951
     16 C           5.1350   -4.0000    0.0000 C.3     1  UNL1        0.1152
     17 C           6.0010   -3.5000    0.0000 C.3     1  UNL1        0.1454
     18 C           4.2690   -3.5000    0.0000 C.3     1  UNL1        0.1120
     19 C           6.0010   -2.5000    0.0000 C.3     1  UNL1        0.2308
     20 C           4.2690    3.5000    0.0000 C.3     1  UNL1        0.1152
     21 C           4.2690    2.5000    0.0000 C.3     1  UNL1        0.1454
     22 C           4.2690   -2.5000    0.0000 C.3     1  UNL1        0.1140
     23 C           5.1350    4.0000    0.0000 C.3     1  UNL1        0.1120
     24 C           5.1350    2.0000    0.0000 C.3     1  UNL1        0.2308
     25 C           6.0010    3.5000    0.0000 C.3     1  UNL1        0.1140
     26 C           7.7331   -0.5000    0.0000 C.ar    1  UNL1        0.0650
     27 C           8.6270   -1.0347    0.0000 C.3     1  UNL1        0.0907
     28 C           6.8671   -1.0000    0.0000 C.ar    1  UNL1        0.1395
     29 C           9.5331   -0.5208    0.0000 C.3     1  UNL1        0.0190
     30 C           7.7331    0.5000    0.0000 C.ar    1  UNL1        0.1369
     31 C           9.5331    0.5208    0.0000 C.3     1  UNL1        0.1278
     32 C           6.0010    0.5000    0.0000 C.ar    1  UNL1        0.1367
     33 C           6.0010   -0.5000    0.0000 C.ar    1  UNL1        0.0339
     34 C           6.8671    1.0000    0.0000 C.ar    1  UNL1        0.0338
     35 C           3.4030   -2.0000    0.0000 C.3     1  UNL1        0.0731
     36 C           6.8671    4.0000    0.0000 C.3     1  UNL1        0.0731
     37 C          10.3972    1.0241    0.0000 C.ar    1  UNL1       -0.0070
     38 C           5.1350   -1.0000    0.0000 C.3     1  UNL1       -0.0327
     39 C           6.8671    2.0000    0.0000 C.3     1  UNL1       -0.0327
     40 C          11.2651    0.5275    0.0000 C.ar    1  UNL1       -0.0516
     41 C          10.3933    2.0241    0.0000 C.ar    1  UNL1       -0.0516
     42 C          12.1292    1.0308    0.0000 C.ar    1  UNL1       -0.0196
     43 C          11.2574    2.5275    0.0000 C.ar    1  UNL1       -0.0196
     44 C          12.1254    2.0308    0.0000 C.ar    1  UNL1        0.1201
     45 C          13.8574    2.0375    0.0000 C.3     1  UNL1        0.0788
     46 H           5.6720   -4.3100    0.0000 H       1  UNL1        0.0648
     47 H           6.5380   -3.1900    0.0000 H       1  UNL1        0.0683
     48 H           4.2690   -4.1200    0.0000 H       1  UNL1        0.0647
     49 H           6.0010   -1.8800    0.0000 H       1  UNL1        0.1084
     50 H           4.2690    4.1200    0.0000 H       1  UNL1        0.0648
     51 H           4.2690    1.8800    0.0000 H       1  UNL1        0.0683
     52 H           4.2690   -1.8800    0.0000 H       1  UNL1        0.0647
     53 H           5.6720    4.3100    0.0000 H       1  UNL1        0.0647
     54 H           5.6720    1.6900    0.0000 H       1  UNL1        0.1084
     55 H           6.5380    3.1900    0.0000 H       1  UNL1        0.0647
     56 H           9.1610   -1.3498    0.0000 H       1  UNL1        0.0647
     57 H           9.7422   -1.1045    0.0000 H       1  UNL1        0.0333
     58 H          10.1440   -0.4147    0.0000 H       1  UNL1        0.0333
     59 H           9.5295    1.1408    0.0000 H       1  UNL1        0.0785
     60 H           3.8015   -1.5250    0.0000 H       1  UNL1        0.0584
     61 H           3.0044   -1.5250    0.0000 H       1  UNL1        0.0584
     62 H           7.0791    3.4174    0.0000 H       1  UNL1        0.0584
     63 H           7.4776    4.1077    0.0000 H       1  UNL1        0.0584
     64 H           4.8250   -0.4631    0.0000 H       1  UNL1        0.0280
     65 H           4.5981   -1.3100    0.0000 H       1  UNL1        0.0280
     66 H           5.4450   -1.5369    0.0000 H       1  UNL1        0.0280
     67 H           4.5981   -5.3100    0.0000 H       1  UNL1        0.2100
     68 H           6.8671   -4.6200    0.0000 H       1  UNL1        0.2102
     69 H           7.4871    2.0000    0.0000 H       1  UNL1        0.0280
     70 H           6.8671    2.6200    0.0000 H       1  UNL1        0.0280
     71 H           6.2471    2.0000    0.0000 H       1  UNL1        0.0280
     72 H           3.4030   -4.6200    0.0000 H       1  UNL1        0.2100
     73 H           3.4030    4.6200    0.0000 H       1  UNL1        0.2100
     74 H           2.8660    2.3100    0.0000 H       1  UNL1        0.2102
     75 H           4.5981    5.3100    0.0000 H       1  UNL1        0.2100
     76 H           9.1488   -2.3508    0.0000 H       1  UNL1        0.2102
     77 H          11.2675   -0.0925    0.0000 H       1  UNL1        0.0623
     78 H           9.8552    2.3321    0.0000 H       1  UNL1        0.0623
     79 H           2.0000   -2.1900    0.0000 H       1  UNL1        0.2095
     80 H           7.4040    5.3100    0.0000 H       1  UNL1        0.2095
     81 H          12.6674    0.7229    0.0000 H       1  UNL1        0.0654
     82 H          11.2550    3.1475    0.0000 H       1  UNL1        0.0654
     83 H          13.5495    1.4994    0.0000 H       1  UNL1        0.0660
     84 H          14.3955    1.7296    0.0000 H       1  UNL1        0.0660
     85 H          14.1653    2.5756    0.0000 H       1  UNL1        0.0660
@<TRIPOS>BOND
     1     1    19    1
     2     1    22    1
     3     2    24    1
     4     2    25    1
     5    19     3    1
     6     3    28    1
     7    24     4    1
     8     4    32    1
     9     5    30    1
    10     5    31    1
    11    16     6    1
    12     6    67    1
    13     7    17    1
    14     7    68    1
    15    18     8    1
    16     8    72    1
    17    20     9    1
    18     9    73    1
    19    10    21    1
    20    10    74    1
    21    23    11    1
    22    11    75    1
    23    27    12    1
    24    12    76    1
    25    13    35    1
    26    13    79    1
    27    14    36    1
    28    14    80    1
    29    15    44    1
    30    15    45    1
    31    16    17    1
    32    16    18    1
    33    16    46    1
    34    17    19    1
    35    17    47    1
    36    18    22    1
    37    18    48    1
    38    19    49    1
    39    20    21    1
    40    20    23    1
    41    20    50    1
    42    21    24    1
    43    21    51    1
    44    22    35    1
    45    22    52    1
    46    23    25    1
    47    23    53    1
    48    24    54    1
    49    25    36    1
    50    25    55    1
    51    26    27    1
    52    26    28   ar
    53    26    30   ar
    54    27    29    1
    55    27    56    1
    56    28    33   ar
    57    29    31    1
    58    29    57    1
    59    29    58    1
    60    30    34   ar
    61    31    37    1
    62    31    59    1
    63    32    33   ar
    64    32    34   ar
    65    33    38    1
    66    34    39    1
    67    35    60    1
    68    35    61    1
    69    36    62    1
    70    36    63    1
    71    37    40   ar
    72    37    41   ar
    73    38    64    1
    74    38    65    1
    75    38    66    1
    76    39    69    1
    77    39    70    1
    78    39    71    1
    79    40    42   ar
    80    40    77    1
    81    41    43   ar
    82    41    78    1
    83    42    44   ar
    84    42    81    1
    85    43    44   ar
    86    43    82    1
    87    45    83    1
    88    45    84    1
    89    45    85    1
