@<TRIPOS>MOLECULE
IMPHY012572
 82 87 0 0 0
SMALL
GASTEIGER

@<TRIPOS>ATOM
      1 O           5.9860    0.5419    0.0000 O.3     1  UNL1       -0.3289
      2 O           6.8680   -1.9996    0.0000 O.3     1  UNL1       -0.4512
      3 O           8.6382   -1.0027    0.0000 O.3     1  UNL1       -0.4512
      4 O           8.6540    1.0455    0.0000 O.3     1  UNL1       -0.3818
      5 O           6.8802    2.0697    0.0000 O.3     1  UNL1       -0.4287
      6 O           4.8772   -1.9655    0.0000 O.3     1  UNL1       -0.4584
      7 O           5.8477   -3.6798    0.0000 O.2     1  UNL1       -0.2449
      8 O           9.5216    0.4872    0.0000 O.2     1  UNL1       -0.2449
      9 O           5.1481    2.0630    0.0000 O.2     1  UNL1       -0.2449
     10 O           5.8772   -1.9655    0.0000 O.2     1  UNL1       -0.2449
     11 O           6.3741   -6.3338    0.0000 O.3     1  UNL1       -0.5028
     12 O           5.3803   -6.3338    0.0000 O.3     1  UNL1       -0.5028
     13 O           9.4464   -4.5757    0.0000 O.3     1  UNL1       -0.5032
     14 O           8.4223   -6.3496    0.0000 O.3     1  UNL1       -0.5009
     15 O           3.3321   -6.3496    0.0000 O.3     1  UNL1       -0.5009
     16 O           2.3079   -4.5757    0.0000 O.3     1  UNL1       -0.5032
     17 O          12.9739   -0.5528    0.0000 O.3     1  UNL1       -0.5032
     18 O          11.2072   -3.5326    0.0000 O.3     1  UNL1       -0.5032
     19 O          12.9507   -2.5527    0.0000 O.3     1  UNL1       -0.5009
     20 O           4.2686    5.5597    0.0000 O.3     1  UNL1       -0.5032
     21 O           7.7327    5.5730    0.0000 O.3     1  UNL1       -0.5032
     22 O           5.9968    6.5663    0.0000 O.3     1  UNL1       -0.5009
     23 C           6.8680   -0.9996    0.0000 C.3     1  UNL1        0.1719
     24 C           7.7780   -0.4927    0.0000 C.3     1  UNL1        0.1741
     25 C           6.0020   -0.4996    0.0000 C.3     1  UNL1        0.1371
     26 C           7.7861    0.5489    0.0000 C.3     1  UNL1        0.1576
     27 C           6.8840    1.0697    0.0000 C.3     1  UNL1        0.2352
     28 C           5.1360   -0.9996    0.0000 C.3     1  UNL1        0.1226
     29 C           6.3772   -2.8315    0.0000 C.2     1  UNL1        0.3405
     30 C           9.5100   -0.5128    0.0000 C.2     1  UNL1        0.3399
     31 C           6.8772   -3.6976    0.0000 C.ar    1  UNL1        0.0740
     32 C           6.0122    2.5663    0.0000 C.2     1  UNL1        0.3417
     33 C           5.3772   -2.8315    0.0000 C.2     1  UNL1        0.3401
     34 C           6.3772   -4.5636    0.0000 C.ar    1  UNL1        0.0458
     35 C           4.8772   -3.6976    0.0000 C.ar    1  UNL1        0.0740
     36 C           5.3772   -4.5636    0.0000 C.ar    1  UNL1        0.0458
     37 C          10.3702   -1.0227    0.0000 C.ar    1  UNL1        0.0661
     38 C           7.9187   -3.6815    0.0000 C.ar    1  UNL1       -0.0017
     39 C           6.0084    3.5663    0.0000 C.ar    1  UNL1        0.0662
     40 C           6.8840   -5.4736    0.0000 C.ar    1  UNL1        0.1708
     41 C           4.8703   -5.4736    0.0000 C.ar    1  UNL1        0.1708
     42 C           3.8357   -3.6815    0.0000 C.ar    1  UNL1       -0.0017
     43 C           8.4464   -4.5795    0.0000 C.ar    1  UNL1        0.1628
     44 C           7.9256   -5.4816    0.0000 C.ar    1  UNL1        0.2012
     45 C          10.3586   -2.0227    0.0000 C.ar    1  UNL1       -0.0023
     46 C          11.2419   -0.5328    0.0000 C.ar    1  UNL1       -0.0023
     47 C           3.8287   -5.4816    0.0000 C.ar    1  UNL1        0.2012
     48 C           3.3079   -4.5795    0.0000 C.ar    1  UNL1        0.1628
     49 C           6.8724    4.0697    0.0000 C.ar    1  UNL1       -0.0023
     50 C           5.1404    4.0630    0.0000 C.ar    1  UNL1       -0.0023
     51 C          12.1021   -1.0428    0.0000 C.ar    1  UNL1        0.1628
     52 C          11.2188   -2.5326    0.0000 C.ar    1  UNL1        0.1628
     53 C          12.0905   -2.0427    0.0000 C.ar    1  UNL1        0.2006
     54 C           5.1366    5.0630    0.0000 C.ar    1  UNL1        0.1628
     55 C           6.8686    5.0697    0.0000 C.ar    1  UNL1        0.1628
     56 C           6.0006    5.5663    0.0000 C.ar    1  UNL1        0.2006
     57 H           7.4026   -1.3137    0.0000 H       1  UNL1        0.0800
     58 H           7.7697   -1.1127    0.0000 H       1  UNL1        0.0801
     59 H           5.4627   -0.1937    0.0000 H       1  UNL1        0.0670
     60 H           8.3212    0.2358    0.0000 H       1  UNL1        0.0695
     61 H           7.4203    1.3807    0.0000 H       1  UNL1        0.1086
     62 H           4.9755   -0.4007    0.0000 H       1  UNL1        0.0725
     63 H           4.5160   -0.9996    0.0000 H       1  UNL1        0.0725
     64 H           8.6564    1.6655    0.0000 H       1  UNL1        0.2102
     65 H           8.2225   -3.1410    0.0000 H       1  UNL1        0.0664
     66 H           3.5319   -3.1410    0.0000 H       1  UNL1        0.0664
     67 H           9.8181   -2.3264    0.0000 H       1  UNL1        0.0663
     68 H          11.2491    0.0872    0.0000 H       1  UNL1        0.0663
     69 H           7.4106    3.7617    0.0000 H       1  UNL1        0.0663
     70 H           4.6047    3.7509    0.0000 H       1  UNL1        0.0663
     71 H           6.6778   -6.8742    0.0000 H       1  UNL1        0.2923
     72 H           5.0766   -6.8742    0.0000 H       1  UNL1        0.2923
     73 H           9.7544   -4.0375    0.0000 H       1  UNL1        0.2923
     74 H           9.0423   -6.3519    0.0000 H       1  UNL1        0.2924
     75 H           2.7121   -6.3519    0.0000 H       1  UNL1        0.2924
     76 H           2.0000   -4.0375    0.0000 H       1  UNL1        0.2923
     77 H          12.9810    0.0672    0.0000 H       1  UNL1        0.2923
     78 H          11.7405   -3.8488    0.0000 H       1  UNL1        0.2923
     79 H          13.4912   -2.2489    0.0000 H       1  UNL1        0.2924
     80 H           3.7329    5.2476    0.0000 H       1  UNL1        0.2923
     81 H           7.7303    6.1930    0.0000 H       1  UNL1        0.2923
     82 H           5.4587    6.8742    0.0000 H       1  UNL1        0.2924
@<TRIPOS>BOND
     1     1    25    1
     2     1    27    1
     3     2    23    1
     4     2    29    1
     5     3    24    1
     6     3    30    1
     7     4    26    1
     8     4    64    1
     9     5    27    1
    10     5    32    1
    11     6    28    1
    12     6    33    1
    13     7    29    2
    14     8    30    2
    15     9    32    2
    16    10    33    2
    17    11    40    1
    18    11    71    1
    19    12    41    1
    20    12    72    1
    21    13    43    1
    22    13    73    1
    23    14    44    1
    24    14    74    1
    25    15    47    1
    26    15    75    1
    27    16    48    1
    28    16    76    1
    29    17    51    1
    30    17    77    1
    31    18    52    1
    32    18    78    1
    33    19    53    1
    34    19    79    1
    35    20    54    1
    36    20    80    1
    37    21    55    1
    38    21    81    1
    39    22    56    1
    40    22    82    1
    41    23    24    1
    42    23    25    1
    43    23    57    1
    44    24    26    1
    45    24    58    1
    46    25    28    1
    47    25    59    1
    48    26    27    1
    49    26    60    1
    50    27    61    1
    51    28    62    1
    52    28    63    1
    53    29    31    1
    54    30    37    1
    55    31    34   ar
    56    31    38   ar
    57    32    39    1
    58    33    35    1
    59    34    36    1
    60    34    40   ar
    61    35    36   ar
    62    35    42   ar
    63    36    41   ar
    64    37    45   ar
    65    37    46   ar
    66    38    43   ar
    67    38    65    1
    68    39    49   ar
    69    39    50   ar
    70    40    44   ar
    71    41    47   ar
    72    42    48   ar
    73    42    66    1
    74    43    44   ar
    75    45    52   ar
    76    45    67    1
    77    46    51   ar
    78    46    68    1
    79    47    48   ar
    80    49    55   ar
    81    49    69    1
    82    50    54   ar
    83    50    70    1
    84    51    53   ar
    85    52    53   ar
    86    54    56   ar
    87    55    56   ar
