@<TRIPOS>MOLECULE
IMPHY000454
 57 59 0 0 0
SMALL
GASTEIGER

@<TRIPOS>ATOM
      1 O           6.8671   -1.7694    0.0000 O.3     1  UNL1       -0.3241
      2 O           6.3671    1.7694    0.0000 O.3     1  UNL1       -0.3412
      3 O           5.1350   -1.7694    0.0000 O.3     1  UNL1       -0.3405
      4 O           4.6350    1.7694    0.0000 O.3     1  UNL1       -0.3431
      5 O           6.8671   -3.7694    0.0000 O.3     1  UNL1       -0.3841
      6 O           5.1350   -4.7694    0.0000 O.3     1  UNL1       -0.3864
      7 O           3.4030   -3.7694    0.0000 O.3     1  UNL1       -0.3865
      8 O           6.3671    3.7694    0.0000 O.3     1  UNL1       -0.3841
      9 O           4.6350    4.7694    0.0000 O.3     1  UNL1       -0.3864
     10 O           2.9030    3.7694    0.0000 O.3     1  UNL1       -0.3866
     11 O           2.5369   -2.2694    0.0000 O.3     1  UNL1       -0.3924
     12 N           8.7692   -1.3874    0.0000 N.1     1  UNL1       -0.1932
     13 C           6.8671   -0.7694    0.0000 C.3     1  UNL1        0.1788
     14 C           6.0010   -2.2694    0.0000 C.3     1  UNL1        0.1901
     15 C           6.3671    0.7694    0.0000 C.3     1  UNL1        0.0839
     16 C           7.1761    0.1816    0.0000 C.3     1  UNL1        0.0235
     17 C           6.0010   -3.2694    0.0000 C.3     1  UNL1        0.1342
     18 C           5.1350   -3.7694    0.0000 C.3     1  UNL1        0.1141
     19 C           5.5010    2.2694    0.0000 C.3     1  UNL1        0.1884
     20 C           4.2690   -3.2694    0.0000 C.3     1  UNL1        0.1119
     21 C           5.5010    3.2694    0.0000 C.3     1  UNL1        0.1341
     22 C           4.6350    3.7694    0.0000 C.3     1  UNL1        0.1140
     23 C           4.2690   -2.2694    0.0000 C.3     1  UNL1        0.1130
     24 C           3.7690    3.2694    0.0000 C.3     1  UNL1        0.1095
     25 C           3.7690    2.2694    0.0000 C.3     1  UNL1        0.0873
     26 C           5.8671   -0.7694    0.0000 C.2     1  UNL1       -0.0399
     27 C           5.5580    0.1816    0.0000 C.2     1  UNL1       -0.0556
     28 C           3.4030   -1.7694    0.0000 C.3     1  UNL1        0.0730
     29 C           2.9030    1.7694    0.0000 C.3     1  UNL1       -0.0361
     30 C           7.8181   -1.0784    0.0000 C.1     1  UNL1        0.1021
     31 H           6.0010   -1.6494    0.0000 H       1  UNL1        0.0938
     32 H           6.9195    1.0509    0.0000 H       1  UNL1        0.0643
     33 H           6.0010   -3.8894    0.0000 H       1  UNL1        0.0671
     34 H           7.7425   -0.0705    0.0000 H       1  UNL1        0.0335
     35 H           7.4861    0.7186    0.0000 H       1  UNL1        0.0335
     36 H           4.5981   -4.0794    0.0000 H       1  UNL1        0.0648
     37 H           5.5010    1.6494    0.0000 H       1  UNL1        0.0938
     38 H           3.7320   -2.9594    0.0000 H       1  UNL1        0.0647
     39 H           6.0380    2.9594    0.0000 H       1  UNL1        0.0671
     40 H           5.1720    4.0794    0.0000 H       1  UNL1        0.0648
     41 H           4.2690   -1.6494    0.0000 H       1  UNL1        0.0647
     42 H           3.7690    3.8894    0.0000 H       1  UNL1        0.0646
     43 H           3.7690    1.6494    0.0000 H       1  UNL1        0.0621
     44 H           5.5026   -1.2710    0.0000 H       1  UNL1        0.0609
     45 H           4.9684    0.3732    0.0000 H       1  UNL1        0.0596
     46 H           3.8015   -1.2945    0.0000 H       1  UNL1        0.0584
     47 H           3.0044   -1.2945    0.0000 H       1  UNL1        0.0584
     48 H           2.5930    2.3064    0.0000 H       1  UNL1        0.0255
     49 H           2.3660    1.4594    0.0000 H       1  UNL1        0.0255
     50 H           3.2130    1.2325    0.0000 H       1  UNL1        0.0255
     51 H           6.8671   -4.3894    0.0000 H       1  UNL1        0.2101
     52 H           4.5981   -5.0794    0.0000 H       1  UNL1        0.2100
     53 H           3.4030   -4.3894    0.0000 H       1  UNL1        0.2100
     54 H           6.3671    4.3894    0.0000 H       1  UNL1        0.2101
     55 H           4.0981    5.0794    0.0000 H       1  UNL1        0.2100
     56 H           2.3660    3.4594    0.0000 H       1  UNL1        0.2100
     57 H           2.0000   -1.9594    0.0000 H       1  UNL1        0.2095
@<TRIPOS>BOND
     1    13     1    1
     2    14     1    1
     3    15     2    1
     4    19     2    1
     5     3    14    1
     6     3    23    1
     7     4    19    1
     8     4    25    1
     9    17     5    1
    10     5    51    1
    11    18     6    1
    12     6    52    1
    13    20     7    1
    14     7    53    1
    15    21     8    1
    16     8    54    1
    17    22     9    1
    18     9    55    1
    19    24    10    1
    20    10    56    1
    21    11    28    1
    22    11    57    1
    23    12    30    3
    24    13    16    1
    25    13    26    1
    26    13    30    1
    27    14    17    1
    28    14    31    1
    29    15    16    1
    30    15    27    1
    31    15    32    1
    32    16    34    1
    33    16    35    1
    34    17    18    1
    35    17    33    1
    36    18    20    1
    37    18    36    1
    38    19    21    1
    39    19    37    1
    40    20    23    1
    41    20    38    1
    42    21    22    1
    43    21    39    1
    44    22    24    1
    45    22    40    1
    46    23    28    1
    47    23    41    1
    48    24    25    1
    49    24    42    1
    50    25    29    1
    51    25    43    1
    52    26    27    2
    53    26    44    1
    54    27    45    1
    55    28    46    1
    56    28    47    1
    57    29    48    1
    58    29    49    1
    59    29    50    1
