@<TRIPOS>MOLECULE
IMPHY015170
 164 163 0 0 0
SMALL
GASTEIGER

@<TRIPOS>ATOM
      1 BR          2.0000    0.2500    0.0000 Br      1  UNL1       -0.0918
      2 BR         49.6314   -0.2500    0.0000 Br      1  UNL1       -0.0918
      3 C          25.3827   -0.2500    0.0000 C.3     1  UNL1       -0.0531
      4 C          26.2487    0.2500    0.0000 C.3     1  UNL1       -0.0531
      5 C          24.5167    0.2500    0.0000 C.3     1  UNL1       -0.0531
      6 C          27.1147   -0.2500    0.0000 C.3     1  UNL1       -0.0531
      7 C          23.6506   -0.2500    0.0000 C.3     1  UNL1       -0.0531
      8 C          27.9808    0.2500    0.0000 C.3     1  UNL1       -0.0531
      9 C          22.7846    0.2500    0.0000 C.3     1  UNL1       -0.0531
     10 C          28.8468   -0.2500    0.0000 C.3     1  UNL1       -0.0531
     11 C          21.9186   -0.2500    0.0000 C.3     1  UNL1       -0.0531
     12 C          29.7128    0.2500    0.0000 C.3     1  UNL1       -0.0531
     13 C          21.0526    0.2500    0.0000 C.3     1  UNL1       -0.0531
     14 C          30.5788   -0.2500    0.0000 C.3     1  UNL1       -0.0531
     15 C          20.1865   -0.2500    0.0000 C.3     1  UNL1       -0.0531
     16 C          31.4449    0.2500    0.0000 C.3     1  UNL1       -0.0531
     17 C          19.3205    0.2500    0.0000 C.3     1  UNL1       -0.0531
     18 C          32.3109   -0.2500    0.0000 C.3     1  UNL1       -0.0531
     19 C          18.4545   -0.2500    0.0000 C.3     1  UNL1       -0.0531
     20 C          33.1769    0.2500    0.0000 C.3     1  UNL1       -0.0531
     21 C          17.5885    0.2500    0.0000 C.3     1  UNL1       -0.0531
     22 C          34.0429   -0.2500    0.0000 C.3     1  UNL1       -0.0531
     23 C          16.7224   -0.2500    0.0000 C.3     1  UNL1       -0.0531
     24 C          34.9090    0.2500    0.0000 C.3     1  UNL1       -0.0531
     25 C          15.8564    0.2500    0.0000 C.3     1  UNL1       -0.0531
     26 C          35.7750   -0.2500    0.0000 C.3     1  UNL1       -0.0531
     27 C          14.9904   -0.2500    0.0000 C.3     1  UNL1       -0.0531
     28 C          36.6410    0.2500    0.0000 C.3     1  UNL1       -0.0531
     29 C          14.1244    0.2500    0.0000 C.3     1  UNL1       -0.0531
     30 C          37.5070   -0.2500    0.0000 C.3     1  UNL1       -0.0531
     31 C          13.2583   -0.2500    0.0000 C.3     1  UNL1       -0.0531
     32 C          38.3731    0.2500    0.0000 C.3     1  UNL1       -0.0531
     33 C          12.3923    0.2500    0.0000 C.3     1  UNL1       -0.0531
     34 C          39.2391   -0.2500    0.0000 C.3     1  UNL1       -0.0531
     35 C          11.5263   -0.2500    0.0000 C.3     1  UNL1       -0.0531
     36 C          40.1051    0.2500    0.0000 C.3     1  UNL1       -0.0531
     37 C          10.6603    0.2500    0.0000 C.3     1  UNL1       -0.0531
     38 C          40.9711   -0.2500    0.0000 C.3     1  UNL1       -0.0531
     39 C           9.7942   -0.2500    0.0000 C.3     1  UNL1       -0.0531
     40 C          41.8372    0.2500    0.0000 C.3     1  UNL1       -0.0531
     41 C           8.9282    0.2500    0.0000 C.3     1  UNL1       -0.0531
     42 C          42.7032   -0.2500    0.0000 C.3     1  UNL1       -0.0531
     43 C           8.0622   -0.2500    0.0000 C.3     1  UNL1       -0.0531
     44 C          43.5692    0.2500    0.0000 C.3     1  UNL1       -0.0531
     45 C           7.1962    0.2500    0.0000 C.3     1  UNL1       -0.0531
     46 C          44.4352   -0.2500    0.0000 C.3     1  UNL1       -0.0531
     47 C           6.3301   -0.2500    0.0000 C.3     1  UNL1       -0.0531
     48 C          45.3013    0.2500    0.0000 C.3     1  UNL1       -0.0531
     49 C           5.4641    0.2500    0.0000 C.3     1  UNL1       -0.0530
     50 C          46.1673   -0.2500    0.0000 C.3     1  UNL1       -0.0530
     51 C           4.5981   -0.2500    0.0000 C.3     1  UNL1       -0.0523
     52 C          47.0333    0.2500    0.0000 C.3     1  UNL1       -0.0523
     53 C           3.7320    0.2500    0.0000 C.3     1  UNL1       -0.0434
     54 C          47.8993   -0.2500    0.0000 C.3     1  UNL1       -0.0434
     55 C           2.8660   -0.2500    0.0000 C.3     1  UNL1        0.0033
     56 C          48.7654    0.2500    0.0000 C.3     1  UNL1        0.0033
     57 H          24.9842   -0.7249    0.0000 H       1  UNL1        0.0265
     58 H          25.7812   -0.7249    0.0000 H       1  UNL1        0.0265
     59 H          26.6472    0.7249    0.0000 H       1  UNL1        0.0265
     60 H          25.8502    0.7249    0.0000 H       1  UNL1        0.0265
     61 H          24.9152    0.7249    0.0000 H       1  UNL1        0.0265
     62 H          24.1181    0.7249    0.0000 H       1  UNL1        0.0265
     63 H          26.7162   -0.7249    0.0000 H       1  UNL1        0.0265
     64 H          27.5133   -0.7249    0.0000 H       1  UNL1        0.0265
     65 H          23.2521   -0.7249    0.0000 H       1  UNL1        0.0265
     66 H          24.0492   -0.7249    0.0000 H       1  UNL1        0.0265
     67 H          28.3793    0.7249    0.0000 H       1  UNL1        0.0265
     68 H          27.5822    0.7249    0.0000 H       1  UNL1        0.0265
     69 H          23.1831    0.7249    0.0000 H       1  UNL1        0.0265
     70 H          22.3861    0.7249    0.0000 H       1  UNL1        0.0265
     71 H          28.4483   -0.7249    0.0000 H       1  UNL1        0.0265
     72 H          29.2453   -0.7249    0.0000 H       1  UNL1        0.0265
     73 H          21.5201   -0.7249    0.0000 H       1  UNL1        0.0265
     74 H          22.3171   -0.7249    0.0000 H       1  UNL1        0.0265
     75 H          30.1113    0.7249    0.0000 H       1  UNL1        0.0265
     76 H          29.3143    0.7249    0.0000 H       1  UNL1        0.0265
     77 H          21.4511    0.7249    0.0000 H       1  UNL1        0.0265
     78 H          20.6540    0.7249    0.0000 H       1  UNL1        0.0265
     79 H          30.1803   -0.7249    0.0000 H       1  UNL1        0.0265
     80 H          30.9774   -0.7249    0.0000 H       1  UNL1        0.0265
     81 H          19.7880   -0.7249    0.0000 H       1  UNL1        0.0265
     82 H          20.5851   -0.7249    0.0000 H       1  UNL1        0.0265
     83 H          31.8434    0.7249    0.0000 H       1  UNL1        0.0265
     84 H          31.0463    0.7249    0.0000 H       1  UNL1        0.0265
     85 H          19.7190    0.7249    0.0000 H       1  UNL1        0.0265
     86 H          18.9220    0.7249    0.0000 H       1  UNL1        0.0265
     87 H          31.9124   -0.7249    0.0000 H       1  UNL1        0.0265
     88 H          32.7094   -0.7249    0.0000 H       1  UNL1        0.0265
     89 H          18.0560   -0.7249    0.0000 H       1  UNL1        0.0265
     90 H          18.8530   -0.7249    0.0000 H       1  UNL1        0.0265
     91 H          33.5754    0.7249    0.0000 H       1  UNL1        0.0265
     92 H          32.7784    0.7249    0.0000 H       1  UNL1        0.0265
     93 H          17.9870    0.7249    0.0000 H       1  UNL1        0.0265
     94 H          17.1899    0.7249    0.0000 H       1  UNL1        0.0265
     95 H          33.6444   -0.7249    0.0000 H       1  UNL1        0.0265
     96 H          34.4415   -0.7249    0.0000 H       1  UNL1        0.0265
     97 H          16.3239   -0.7249    0.0000 H       1  UNL1        0.0265
     98 H          17.1210   -0.7249    0.0000 H       1  UNL1        0.0265
     99 H          35.3075    0.7249    0.0000 H       1  UNL1        0.0265
    100 H          34.5104    0.7249    0.0000 H       1  UNL1        0.0265
    101 H          16.2549    0.7249    0.0000 H       1  UNL1        0.0265
    102 H          15.4579    0.7249    0.0000 H       1  UNL1        0.0265
    103 H          35.3765   -0.7249    0.0000 H       1  UNL1        0.0265
    104 H          36.1735   -0.7249    0.0000 H       1  UNL1        0.0265
    105 H          14.5919   -0.7249    0.0000 H       1  UNL1        0.0265
    106 H          15.3889   -0.7249    0.0000 H       1  UNL1        0.0265
    107 H          37.0395    0.7249    0.0000 H       1  UNL1        0.0265
    108 H          36.2425    0.7249    0.0000 H       1  UNL1        0.0265
    109 H          14.5229    0.7249    0.0000 H       1  UNL1        0.0265
    110 H          13.7258    0.7249    0.0000 H       1  UNL1        0.0265
    111 H          37.1085   -0.7249    0.0000 H       1  UNL1        0.0265
    112 H          37.9056   -0.7249    0.0000 H       1  UNL1        0.0265
    113 H          12.8598   -0.7249    0.0000 H       1  UNL1        0.0265
    114 H          13.6569   -0.7249    0.0000 H       1  UNL1        0.0265
    115 H          38.7716    0.7249    0.0000 H       1  UNL1        0.0265
    116 H          37.9745    0.7249    0.0000 H       1  UNL1        0.0265
    117 H          12.7908    0.7249    0.0000 H       1  UNL1        0.0265
    118 H          11.9938    0.7249    0.0000 H       1  UNL1        0.0265
    119 H          38.8406   -0.7249    0.0000 H       1  UNL1        0.0265
    120 H          39.6376   -0.7249    0.0000 H       1  UNL1        0.0265
    121 H          11.1278   -0.7249    0.0000 H       1  UNL1        0.0265
    122 H          11.9248   -0.7249    0.0000 H       1  UNL1        0.0265
    123 H          40.5036    0.7249    0.0000 H       1  UNL1        0.0265
    124 H          39.7066    0.7249    0.0000 H       1  UNL1        0.0265
    125 H          11.0588    0.7249    0.0000 H       1  UNL1        0.0265
    126 H          10.2617    0.7249    0.0000 H       1  UNL1        0.0265
    127 H          40.5726   -0.7249    0.0000 H       1  UNL1        0.0265
    128 H          41.3697   -0.7249    0.0000 H       1  UNL1        0.0265
    129 H           9.3957   -0.7249    0.0000 H       1  UNL1        0.0265
    130 H          10.1928   -0.7249    0.0000 H       1  UNL1        0.0265
    131 H          42.2357    0.7249    0.0000 H       1  UNL1        0.0265
    132 H          41.4386    0.7249    0.0000 H       1  UNL1        0.0265
    133 H           9.3267    0.7249    0.0000 H       1  UNL1        0.0265
    134 H           8.5297    0.7249    0.0000 H       1  UNL1        0.0265
    135 H          42.3047   -0.7249    0.0000 H       1  UNL1        0.0265
    136 H          43.1017   -0.7249    0.0000 H       1  UNL1        0.0265
    137 H           7.6636   -0.7249    0.0000 H       1  UNL1        0.0265
    138 H           8.4607   -0.7249    0.0000 H       1  UNL1        0.0265
    139 H          43.9677    0.7249    0.0000 H       1  UNL1        0.0265
    140 H          43.1707    0.7249    0.0000 H       1  UNL1        0.0265
    141 H           7.5947    0.7249    0.0000 H       1  UNL1        0.0265
    142 H           6.7976    0.7249    0.0000 H       1  UNL1        0.0265
    143 H          44.0367   -0.7249    0.0000 H       1  UNL1        0.0265
    144 H          44.8338   -0.7249    0.0000 H       1  UNL1        0.0265
    145 H           5.9316   -0.7249    0.0000 H       1  UNL1        0.0265
    146 H           6.7287   -0.7249    0.0000 H       1  UNL1        0.0265
    147 H          45.6998    0.7249    0.0000 H       1  UNL1        0.0265
    148 H          44.9027    0.7249    0.0000 H       1  UNL1        0.0265
    149 H           5.8626    0.7249    0.0000 H       1  UNL1        0.0265
    150 H           5.0656    0.7249    0.0000 H       1  UNL1        0.0265
    151 H          45.7688   -0.7249    0.0000 H       1  UNL1        0.0265
    152 H          46.5658   -0.7249    0.0000 H       1  UNL1        0.0265
    153 H           4.1996   -0.7249    0.0000 H       1  UNL1        0.0266
    154 H           4.9966   -0.7249    0.0000 H       1  UNL1        0.0266
    155 H          47.4319    0.7249    0.0000 H       1  UNL1        0.0266
    156 H          46.6348    0.7249    0.0000 H       1  UNL1        0.0266
    157 H           4.1306    0.7249    0.0000 H       1  UNL1        0.0273
    158 H           3.3335    0.7249    0.0000 H       1  UNL1        0.0273
    159 H          47.5008   -0.7249    0.0000 H       1  UNL1        0.0273
    160 H          48.2979   -0.7249    0.0000 H       1  UNL1        0.0273
    161 H           2.4675   -0.7249    0.0000 H       1  UNL1        0.0382
    162 H           3.2646   -0.7249    0.0000 H       1  UNL1        0.0382
    163 H          49.1639    0.7249    0.0000 H       1  UNL1        0.0382
    164 H          48.3668    0.7249    0.0000 H       1  UNL1        0.0382
@<TRIPOS>BOND
     1     1    55    1
     2     2    56    1
     3     3     4    1
     4     3     5    1
     5     3    57    1
     6     3    58    1
     7     4     6    1
     8     4    59    1
     9     4    60    1
    10     5     7    1
    11     5    61    1
    12     5    62    1
    13     6     8    1
    14     6    63    1
    15     6    64    1
    16     7     9    1
    17     7    65    1
    18     7    66    1
    19     8    10    1
    20     8    67    1
    21     8    68    1
    22     9    11    1
    23     9    69    1
    24     9    70    1
    25    10    12    1
    26    10    71    1
    27    10    72    1
    28    11    13    1
    29    11    73    1
    30    11    74    1
    31    12    14    1
    32    12    75    1
    33    12    76    1
    34    13    15    1
    35    13    77    1
    36    13    78    1
    37    14    16    1
    38    14    79    1
    39    14    80    1
    40    15    17    1
    41    15    81    1
    42    15    82    1
    43    16    18    1
    44    16    83    1
    45    16    84    1
    46    17    19    1
    47    17    85    1
    48    17    86    1
    49    18    20    1
    50    18    87    1
    51    18    88    1
    52    19    21    1
    53    19    89    1
    54    19    90    1
    55    20    22    1
    56    20    91    1
    57    20    92    1
    58    21    23    1
    59    21    93    1
    60    21    94    1
    61    22    24    1
    62    22    95    1
    63    22    96    1
    64    23    25    1
    65    23    97    1
    66    23    98    1
    67    24    26    1
    68    24    99    1
    69    24   100    1
    70    25    27    1
    71    25   101    1
    72    25   102    1
    73    26    28    1
    74    26   103    1
    75    26   104    1
    76    27    29    1
    77    27   105    1
    78    27   106    1
    79    28    30    1
    80    28   107    1
    81    28   108    1
    82    29    31    1
    83    29   109    1
    84    29   110    1
    85    30    32    1
    86    30   111    1
    87    30   112    1
    88    31    33    1
    89    31   113    1
    90    31   114    1
    91    32    34    1
    92    32   115    1
    93    32   116    1
    94    33    35    1
    95    33   117    1
    96    33   118    1
    97    34    36    1
    98    34   119    1
    99    34   120    1
   100    35    37    1
   101    35   121    1
   102    35   122    1
   103    36    38    1
   104    36   123    1
   105    36   124    1
   106    37    39    1
   107    37   125    1
   108    37   126    1
   109    38    40    1
   110    38   127    1
   111    38   128    1
   112    39    41    1
   113    39   129    1
   114    39   130    1
   115    40    42    1
   116    40   131    1
   117    40   132    1
   118    41    43    1
   119    41   133    1
   120    41   134    1
   121    42    44    1
   122    42   135    1
   123    42   136    1
   124    43    45    1
   125    43   137    1
   126    43   138    1
   127    44    46    1
   128    44   139    1
   129    44   140    1
   130    45    47    1
   131    45   141    1
   132    45   142    1
   133    46    48    1
   134    46   143    1
   135    46   144    1
   136    47    49    1
   137    47   145    1
   138    47   146    1
   139    48    50    1
   140    48   147    1
   141    48   148    1
   142    49    51    1
   143    49   149    1
   144    49   150    1
   145    50    52    1
   146    50   151    1
   147    50   152    1
   148    51    53    1
   149    51   153    1
   150    51   154    1
   151    52    54    1
   152    52   155    1
   153    52   156    1
   154    53    55    1
   155    53   157    1
   156    53   158    1
   157    54    56    1
   158    54   159    1
   159    54   160    1
   160    55   161    1
   161    55   162    1
   162    56   163    1
   163    56   164    1
