@<TRIPOS>MOLECULE
IMPHY008733
 21 22 0 0 0
SMALL
GASTEIGER

@<TRIPOS>ATOM
      1 S           2.0000    2.6739    0.0000 S.2     1  UNL1        0.0058
      2 O           2.2788    0.9139    0.0000 O.3     1  UNL1       -0.4644
      3 N           3.5878    1.8649    0.0000 N.am    1  UNL1       -0.3054
      4 C           3.0878    0.3261    0.0000 C.3     1  UNL1        0.1424
      5 C           3.8968    0.9139    0.0000 C.3     1  UNL1        0.0536
      6 C           3.0878   -0.6739    0.0000 C.ar    1  UNL1       -0.0058
      7 C           2.5878    1.8649    0.0000 C.2     1  UNL1        0.2288
      8 C           2.2218   -1.1739    0.0000 C.ar    1  UNL1       -0.0550
      9 C           3.9538   -1.1739    0.0000 C.ar    1  UNL1       -0.0550
     10 C           2.2218   -2.1739    0.0000 C.ar    1  UNL1       -0.0614
     11 C           3.9538   -2.1739    0.0000 C.ar    1  UNL1       -0.0614
     12 C           3.0878   -2.6739    0.0000 C.ar    1  UNL1       -0.0617
     13 H           3.6402    0.0446    0.0000 H       1  UNL1        0.0801
     14 H           4.2068    0.3769    0.0000 H       1  UNL1        0.0502
     15 H           4.4632    1.1660    0.0000 H       1  UNL1        0.0502
     16 H           3.9522    2.3665    0.0000 H       1  UNL1        0.1495
     17 H           1.6848   -0.8639    0.0000 H       1  UNL1        0.0621
     18 H           4.4908   -0.8639    0.0000 H       1  UNL1        0.0621
     19 H           1.6848   -2.4839    0.0000 H       1  UNL1        0.0618
     20 H           4.4908   -2.4839    0.0000 H       1  UNL1        0.0618
     21 H           3.0878   -3.2939    0.0000 H       1  UNL1        0.0618
@<TRIPOS>BOND
     1     1     7    2
     2     2     4    1
     3     2     7    1
     4     3     5    1
     5     3     7    1
     6     3    16    1
     7     4     5    1
     8     4     6    1
     9     4    13    1
    10     5    14    1
    11     5    15    1
    12     6     8   ar
    13     6     9   ar
    14     8    10   ar
    15     8    17    1
    16     9    11   ar
    17     9    18    1
    18    10    12   ar
    19    10    19    1
    20    11    12   ar
    21    11    20    1
    22    12    21    1
