@<TRIPOS>MOLECULE
IMPHY008396
 60 60 0 0 0
SMALL
GASTEIGER

@<TRIPOS>ATOM
      1 O          15.8660    3.2811    0.0000 O.3     1  UNL1       -0.4679
      2 O          14.3660    4.1471    0.0000 O.2     1  UNL1       -0.2509
      3 C           8.0000   -0.6830    0.0000 C.3     1  UNL1       -0.0379
      4 C           8.8660   -0.1830    0.0000 C.3     1  UNL1       -0.0379
      5 C           8.0000    0.3170    0.0000 C.3     1  UNL1       -0.0469
      6 C           7.5000   -1.5490    0.0000 C.3     1  UNL1       -0.0499
      7 C           9.8660   -0.1830    0.0000 C.3     1  UNL1       -0.0499
      8 C           6.5000   -1.5490    0.0000 C.3     1  UNL1       -0.0528
      9 C          10.3660    0.6830    0.0000 C.3     1  UNL1       -0.0528
     10 C           6.0000   -2.4151    0.0000 C.3     1  UNL1       -0.0530
     11 C          11.3660    0.6830    0.0000 C.3     1  UNL1       -0.0530
     12 C           5.0000   -2.4151    0.0000 C.3     1  UNL1       -0.0531
     13 C          11.8660    1.5490    0.0000 C.3     1  UNL1       -0.0530
     14 C           4.5000   -3.2811    0.0000 C.3     1  UNL1       -0.0531
     15 C          12.8660    1.5490    0.0000 C.3     1  UNL1       -0.0526
     16 C           3.5000   -3.2811    0.0000 C.3     1  UNL1       -0.0533
     17 C          13.3660    2.4151    0.0000 C.3     1  UNL1       -0.0430
     18 C           3.0000   -4.1471    0.0000 C.3     1  UNL1       -0.0559
     19 C          14.3660    2.4151    0.0000 C.3     1  UNL1        0.0449
     20 C           2.0000   -4.1471    0.0000 C.3     1  UNL1       -0.0653
     21 C          14.8660    3.2811    0.0000 C.2     1  UNL1        0.3068
     22 C          16.3660    4.1471    0.0000 C.3     1  UNL1        0.0817
     23 H           8.6010   -1.2840    0.0000 H       1  UNL1        0.0304
     24 H           9.0860   -1.0041    0.0000 H       1  UNL1        0.0304
     25 H           8.2120    0.8996    0.0000 H       1  UNL1        0.0271
     26 H           7.3894    0.4246    0.0000 H       1  UNL1        0.0271
     27 H           7.3923   -2.1596    0.0000 H       1  UNL1        0.0268
     28 H           8.0826   -1.7611    0.0000 H       1  UNL1        0.0268
     29 H           9.7584   -0.7936    0.0000 H       1  UNL1        0.0268
     30 H          10.4486   -0.3951    0.0000 H       1  UNL1        0.0268
     31 H           6.6077   -0.9385    0.0000 H       1  UNL1        0.0265
     32 H           5.9174   -1.3370    0.0000 H       1  UNL1        0.0265
     33 H          10.4737    1.2936    0.0000 H       1  UNL1        0.0265
     34 H           9.7834    0.8951    0.0000 H       1  UNL1        0.0265
     35 H           5.8923   -3.0256    0.0000 H       1  UNL1        0.0265
     36 H           6.5826   -2.6271    0.0000 H       1  UNL1        0.0265
     37 H          11.2584    0.0724    0.0000 H       1  UNL1        0.0265
     38 H          11.9486    0.4710    0.0000 H       1  UNL1        0.0265
     39 H           5.1077   -1.8045    0.0000 H       1  UNL1        0.0265
     40 H           4.4174   -2.2030    0.0000 H       1  UNL1        0.0265
     41 H          11.9737    2.1596    0.0000 H       1  UNL1        0.0265
     42 H          11.2834    1.7611    0.0000 H       1  UNL1        0.0265
     43 H           4.3923   -3.8917    0.0000 H       1  UNL1        0.0265
     44 H           5.0826   -3.4931    0.0000 H       1  UNL1        0.0265
     45 H          12.7584    0.9385    0.0000 H       1  UNL1        0.0265
     46 H          13.4486    1.3370    0.0000 H       1  UNL1        0.0265
     47 H           3.6077   -2.6705    0.0000 H       1  UNL1        0.0265
     48 H           2.9174   -3.0690    0.0000 H       1  UNL1        0.0265
     49 H          13.4737    3.0256    0.0000 H       1  UNL1        0.0270
     50 H          12.7834    2.6271    0.0000 H       1  UNL1        0.0270
     51 H           2.8923   -4.7577    0.0000 H       1  UNL1        0.0263
     52 H           3.5826   -4.3592    0.0000 H       1  UNL1        0.0263
     53 H          14.2584    1.8045    0.0000 H       1  UNL1        0.0377
     54 H          14.9486    2.2030    0.0000 H       1  UNL1        0.0377
     55 H           2.0000   -3.5271    0.0000 H       1  UNL1        0.0230
     56 H           1.3800   -4.1471    0.0000 H       1  UNL1        0.0230
     57 H           2.0000   -4.7671    0.0000 H       1  UNL1        0.0230
     58 H          16.9030    3.8371    0.0000 H       1  UNL1        0.0661
     59 H          16.6760    4.6840    0.0000 H       1  UNL1        0.0661
     60 H          15.8291    4.4571    0.0000 H       1  UNL1        0.0661
@<TRIPOS>BOND
     1     1    21    1
     2     1    22    1
     3     2    21    2
     4     3     4    1
     5     3     5    1
     6     3     6    1
     7     3    23    1
     8     4     5    1
     9     4     7    1
    10     4    24    1
    11     5    25    1
    12     5    26    1
    13     6     8    1
    14     6    27    1
    15     6    28    1
    16     7     9    1
    17     7    29    1
    18     7    30    1
    19     8    10    1
    20     8    31    1
    21     8    32    1
    22     9    11    1
    23     9    33    1
    24     9    34    1
    25    10    12    1
    26    10    35    1
    27    10    36    1
    28    11    13    1
    29    11    37    1
    30    11    38    1
    31    12    14    1
    32    12    39    1
    33    12    40    1
    34    13    15    1
    35    13    41    1
    36    13    42    1
    37    14    16    1
    38    14    43    1
    39    14    44    1
    40    15    17    1
    41    15    45    1
    42    15    46    1
    43    16    18    1
    44    16    47    1
    45    16    48    1
    46    17    19    1
    47    17    49    1
    48    17    50    1
    49    18    20    1
    50    18    51    1
    51    18    52    1
    52    19    21    1
    53    19    53    1
    54    19    54    1
    55    20    55    1
    56    20    56    1
    57    20    57    1
    58    22    58    1
    59    22    59    1
    60    22    60    1
