@<TRIPOS>MOLECULE
IMPHY010223
 55 58 0 0 0
SMALL
GASTEIGER

@<TRIPOS>ATOM
      1 O           5.1350   -0.5406    0.0000 O.3     1  UNL1       -0.3313
      2 O           6.8671   -0.5406    0.0000 O.3     1  UNL1       -0.4598
      3 O           5.1350   -3.5406    0.0000 O.3     1  UNL1       -0.3864
      4 O           3.4030   -2.5406    0.0000 O.3     1  UNL1       -0.3865
      5 O           6.8671   -2.5406    0.0000 O.3     1  UNL1       -0.3829
      6 O           2.5369   -1.0406    0.0000 O.3     1  UNL1       -0.3924
      7 O           6.9141    3.5283    0.0000 O.3     1  UNL1       -0.5060
      8 O           8.6158   -0.5262    0.0000 O.2     1  UNL1       -0.2864
      9 O           8.6620    3.4735    0.0000 O.2     1  UNL1       -0.2865
     10 O          10.3636   -0.5811    0.0000 O.3     1  UNL1       -0.5056
     11 O          12.1806    2.4569    0.0000 O.3     1  UNL1       -0.5064
     12 C           5.1350   -2.5406    0.0000 C.3     1  UNL1        0.1152
     13 C           4.2690   -2.0406    0.0000 C.3     1  UNL1        0.1120
     14 C           6.0010   -2.0406    0.0000 C.3     1  UNL1        0.1454
     15 C           4.2690   -1.0406    0.0000 C.3     1  UNL1        0.1140
     16 C           6.0010   -1.0406    0.0000 C.3     1  UNL1        0.2308
     17 C           3.4030   -0.5406    0.0000 C.3     1  UNL1        0.0731
     18 C           6.8671    0.4594    0.0000 C.ar    1  UNL1        0.1386
     19 C           7.7671    0.9837    0.0000 C.ar    1  UNL1        0.0787
     20 C           7.7787    1.9836    0.0000 C.ar    1  UNL1        0.0780
     21 C           5.9670    0.9837    0.0000 C.ar    1  UNL1       -0.0045
     22 C           8.6273    0.4737    0.0000 C.2     1  UNL1        0.2016
     23 C           9.4991    0.9636    0.0000 C.ar    1  UNL1        0.0750
     24 C           9.5106    1.9636    0.0000 C.ar    1  UNL1        0.0402
     25 C           8.6504    2.4736    0.0000 C.2     1  UNL1        0.1984
     26 C           6.8910    2.5286    0.0000 C.ar    1  UNL1        0.1288
     27 C           5.9790    2.0252    0.0000 C.ar    1  UNL1       -0.0131
     28 C           5.0971    0.4904    0.0000 C.3     1  UNL1       -0.0361
     29 C          10.3868    0.4187    0.0000 C.ar    1  UNL1        0.1347
     30 C          10.4107    2.4879    0.0000 C.ar    1  UNL1       -0.0082
     31 C          11.2987    0.9220    0.0000 C.ar    1  UNL1        0.0330
     32 C          11.3108    1.9636    0.0000 C.ar    1  UNL1        0.1239
     33 C          12.1569    0.4087    0.0000 C.3     1  UNL1       -0.0327
     34 H           4.5981   -2.8506    0.0000 H       1  UNL1        0.0648
     35 H           4.2690   -2.6606    0.0000 H       1  UNL1        0.0647
     36 H           6.0010   -2.6606    0.0000 H       1  UNL1        0.0683
     37 H           4.2690   -0.4206    0.0000 H       1  UNL1        0.0647
     38 H           6.5380   -1.3506    0.0000 H       1  UNL1        0.1084
     39 H           3.8015   -0.0657    0.0000 H       1  UNL1        0.0584
     40 H           3.0044   -0.0657    0.0000 H       1  UNL1        0.0584
     41 H           4.5981   -3.8506    0.0000 H       1  UNL1        0.2100
     42 H           3.4030   -3.1606    0.0000 H       1  UNL1        0.2100
     43 H           6.8671   -3.1606    0.0000 H       1  UNL1        0.2102
     44 H           5.4470    2.3435    0.0000 H       1  UNL1        0.0658
     45 H           2.0000   -0.7306    0.0000 H       1  UNL1        0.2095
     46 H           4.7913    1.0297    0.0000 H       1  UNL1        0.0279
     47 H           4.5578    0.1845    0.0000 H       1  UNL1        0.0279
     48 H           5.4030   -0.0490    0.0000 H       1  UNL1        0.0279
     49 H          10.4107    3.1079    0.0000 H       1  UNL1        0.0661
     50 H          11.8387   -0.1234    0.0000 H       1  UNL1        0.0280
     51 H          12.6890    0.0905    0.0000 H       1  UNL1        0.0280
     52 H          12.4752    0.9408    0.0000 H       1  UNL1        0.0280
     53 H           6.3845    3.8506    0.0000 H       1  UNL1        0.2922
     54 H          10.8933   -0.9034    0.0000 H       1  UNL1        0.2922
     55 H          12.1854    3.0769    0.0000 H       1  UNL1        0.2921
@<TRIPOS>BOND
     1     1    15    1
     2     1    16    1
     3     2    16    1
     4     2    18    1
     5    12     3    1
     6     3    41    1
     7    13     4    1
     8     4    42    1
     9    14     5    1
    10     5    43    1
    11     6    17    1
    12     6    45    1
    13     7    26    1
    14     7    53    1
    15     8    22    2
    16     9    25    2
    17    10    29    1
    18    10    54    1
    19    11    32    1
    20    11    55    1
    21    12    13    1
    22    12    14    1
    23    12    34    1
    24    13    15    1
    25    13    35    1
    26    14    16    1
    27    14    36    1
    28    15    17    1
    29    15    37    1
    30    16    38    1
    31    17    39    1
    32    17    40    1
    33    18    19   ar
    34    18    21   ar
    35    19    20   ar
    36    19    22    1
    37    20    25    1
    38    20    26   ar
    39    21    27   ar
    40    21    28    1
    41    22    23    1
    42    23    24   ar
    43    23    29   ar
    44    24    25    1
    45    24    30   ar
    46    26    27   ar
    47    27    44    1
    48    28    46    1
    49    28    47    1
    50    28    48    1
    51    29    31   ar
    52    30    32   ar
    53    30    49    1
    54    31    32   ar
    55    31    33    1
    56    33    50    1
    57    33    51    1
    58    33    52    1
