@<TRIPOS>MOLECULE
IMPHY016299
 19 18 0 0 0
SMALL
GASTEIGER

@<TRIPOS>ATOM
      1 C           3.7320   -0.2500    0.0000 C.2     1  UNL1       -0.0523
      2 C           4.5981    0.2500    0.0000 C.2     1  UNL1       -0.0549
      3 C           3.7320   -1.2500    0.0000 C.3     1  UNL1       -0.0398
      4 C           2.8660    0.2500    0.0000 C.2     1  UNL1       -0.0840
      5 C           5.4641   -0.2500    0.0000 C.3     1  UNL1       -0.0400
      6 C           2.0000   -0.2500    0.0000 C.3     1  UNL1       -0.0463
      7 C           4.5981    1.2500    0.0000 C.2     1  UNL1       -0.0955
      8 H           3.1120   -1.2500    0.0000 H       1  UNL1        0.0278
      9 H           3.7320   -1.8700    0.0000 H       1  UNL1        0.0278
     10 H           4.3520   -1.2500    0.0000 H       1  UNL1        0.0278
     11 H           2.8660    0.8700    0.0000 H       1  UNL1        0.0572
     12 H           5.1541   -0.7869    0.0000 H       1  UNL1        0.0277
     13 H           6.0010   -0.5600    0.0000 H       1  UNL1        0.0277
     14 H           5.7741    0.2869    0.0000 H       1  UNL1        0.0277
     15 H           1.6900    0.2869    0.0000 H       1  UNL1        0.0272
     16 H           1.4631   -0.5600    0.0000 H       1  UNL1        0.0272
     17 H           2.3100   -0.7869    0.0000 H       1  UNL1        0.0272
     18 H           5.1350    1.5600    0.0000 H       1  UNL1        0.0537
     19 H           4.0611    1.5600    0.0000 H       1  UNL1        0.0537
@<TRIPOS>BOND
     1     1     2    1
     2     1     3    1
     3     1     4    2
     4     2     5    1
     5     2     7    2
     6     3     8    1
     7     3     9    1
     8     3    10    1
     9     4     6    1
    10     4    11    1
    11     5    12    1
    12     5    13    1
    13     5    14    1
    14     6    15    1
    15     6    16    1
    16     6    17    1
    17     7    18    1
    18     7    19    1
