@<TRIPOS>MOLECULE
IMPHY007560
 179 187 0 0 0
SMALL
GASTEIGER

@<TRIPOS>ATOM
      1 O           6.8671   -5.7722    0.0000 O.3     1  UNL1       -0.3448
      2 O           8.6424    3.5822    0.0000 O.3     1  UNL1       -0.3423
      3 O           6.8270    4.6211    0.0000 O.3     1  UNL1       -0.3887
      4 O           9.3112   -5.0806    0.0000 O.3     1  UNL1       -0.3944
      5 O           5.1350   -5.7722    0.0000 O.3     1  UNL1       -0.3315
      6 O           7.7764    5.0822    0.0000 O.3     1  UNL1       -0.3461
      7 O           6.8671   -7.7722    0.0000 O.3     1  UNL1       -0.3378
      8 O          10.3745    4.5822    0.0000 O.3     1  UNL1       -0.3841
      9 O           5.1350   -8.7722    0.0000 O.3     1  UNL1       -0.3864
     10 O          10.3745    6.5822    0.0000 O.3     1  UNL1       -0.3390
     11 O           3.4030   -7.7722    0.0000 O.3     1  UNL1       -0.3860
     12 O           8.6424    7.5822    0.0000 O.3     1  UNL1       -0.3868
     13 O           6.0010   -9.2722    0.0000 O.3     1  UNL1       -0.3461
     14 O           2.5369   -6.2722    0.0000 O.3     1  UNL1       -0.4788
     15 O           3.4030   -4.7722    0.0000 O.2     1  UNL1       -0.2480
     16 O           9.5085    8.0822    0.0000 O.3     1  UNL1       -0.3372
     17 O           8.5991   -8.7722    0.0000 O.3     1  UNL1       -0.3841
     18 O           8.5991  -10.7723    0.0000 O.3     1  UNL1       -0.3864
     19 O          12.1066    7.5822    0.0000 O.3     1  UNL1       -0.4525
     20 O           6.8671  -11.7723    0.0000 O.3     1  UNL1       -0.3869
     21 O          12.1066    9.5822    0.0000 O.3     1  UNL1       -0.4537
     22 O          10.3745   10.5823    0.0000 O.3     1  UNL1       -0.4549
     23 O           7.7764    9.0822    0.0000 O.3     1  UNL1       -0.4621
     24 O          12.9726    9.0822    0.0000 O.2     1  UNL1       -0.2512
     25 O          11.2405   11.0823    0.0000 O.2     1  UNL1       -0.2512
     26 O           8.6424   10.5823    0.0000 O.2     1  UNL1       -0.2512
     27 O           6.9104   10.5823    0.0000 O.2     1  UNL1       -0.2512
     28 C           7.7681   -1.0720    0.0000 C.3     1  UNL1       -0.0194
     29 C           6.9040   -1.5754    0.0000 C.3     1  UNL1       -0.0257
     30 C           6.8920   -2.6169    0.0000 C.3     1  UNL1       -0.0249
     31 C           7.7643   -0.0720    0.0000 C.3     1  UNL1       -0.0051
     32 C           7.7920   -3.1412    0.0000 C.3     1  UNL1       -0.0255
     33 C           8.6801   -1.5754    0.0000 C.3     1  UNL1       -0.0463
     34 C           6.8963    0.4246    0.0000 C.2     1  UNL1       -0.0633
     35 C           6.8762    1.4661    0.0000 C.3     1  UNL1       -0.0110
     36 C           8.6921   -2.6169    0.0000 C.3     1  UNL1       -0.0485
     37 C           7.8046   -4.2261    0.0000 C.3     1  UNL1        0.0206
     38 C           7.7722    1.9973    0.0000 C.3     1  UNL1        0.0033
     39 C           8.6723    0.4383    0.0000 C.3     1  UNL1       -0.0428
     40 C           6.0361   -1.0787    0.0000 C.3     1  UNL1       -0.0306
     41 C           5.9421   -3.1412    0.0000 C.3     1  UNL1       -0.0447
     42 C           8.6763    1.4799    0.0000 C.3     1  UNL1       -0.0438
     43 C           8.7522   -0.8946    0.0000 C.3     1  UNL1       -0.0585
     44 C           6.8671   -4.7722    0.0000 C.3     1  UNL1        0.0695
     45 C           6.0322   -0.0787    0.0000 C.2     1  UNL1       -0.0836
     46 C           6.0279   -2.1136    0.0000 C.3     1  UNL1       -0.0590
     47 C           5.9295   -4.2261    0.0000 C.3     1  UNL1       -0.0254
     48 C           8.7497   -0.2419    0.0000 C.3     1  UNL1       -0.0553
     49 C           5.9223    1.9830    0.0000 C.3     1  UNL1       -0.0383
     50 C           7.7764    3.0822    0.0000 C.3     1  UNL1        0.0940
     51 C           5.9014    3.0678    0.0000 C.3     1  UNL1       -0.0059
     52 C           6.8347    3.6211    0.0000 C.3     1  UNL1        0.0870
     53 C           8.8046   -4.2184    0.0000 C.3     1  UNL1        0.0522
     54 C           8.3113   -5.0883    0.0000 C.3     1  UNL1       -0.0548
     55 C           8.6324    2.5072    0.0000 C.3     1  UNL1       -0.0566
     56 C           4.9015    3.0524    0.0000 C.3     1  UNL1       -0.0574
     57 C           5.3881    3.9260    0.0000 C.3     1  UNL1       -0.0574
     58 C           6.0010   -6.2722    0.0000 C.3     1  UNL1        0.1892
     59 C           8.6424    4.5822    0.0000 C.3     1  UNL1        0.1879
     60 C           6.0010   -7.2722    0.0000 C.3     1  UNL1        0.1407
     61 C           9.5085    5.0822    0.0000 C.3     1  UNL1        0.1345
     62 C           5.1350   -7.7722    0.0000 C.3     1  UNL1        0.1149
     63 C           9.5085    6.0822    0.0000 C.3     1  UNL1        0.1203
     64 C           4.2690   -6.2722    0.0000 C.3     1  UNL1        0.1859
     65 C           4.2690   -7.2722    0.0000 C.3     1  UNL1        0.1202
     66 C           7.7764    6.0822    0.0000 C.3     1  UNL1        0.0792
     67 C           8.6424    6.5822    0.0000 C.3     1  UNL1        0.1073
     68 C           6.8671   -8.7722    0.0000 C.3     1  UNL1        0.1881
     69 C           3.4030   -5.7722    0.0000 C.2     1  UNL1        0.3367
     70 C          10.3745    7.5822    0.0000 C.3     1  UNL1        0.2009
     71 C           7.7331   -9.2722    0.0000 C.3     1  UNL1        0.1341
     72 C           7.7331  -10.2723    0.0000 C.3     1  UNL1        0.1137
     73 C          11.2405    8.0822    0.0000 C.3     1  UNL1        0.1936
     74 C           6.0010  -10.2723    0.0000 C.3     1  UNL1        0.0792
     75 C           6.8671  -10.7723    0.0000 C.3     1  UNL1        0.1069
     76 C          11.2405    9.0822    0.0000 C.3     1  UNL1        0.1836
     77 C           9.5085    9.0822    0.0000 C.3     1  UNL1        0.1361
     78 C          10.3745    9.5822    0.0000 C.3     1  UNL1        0.1726
     79 C           8.6424    9.5822    0.0000 C.3     1  UNL1        0.1222
     80 C          12.9726    8.0822    0.0000 C.2     1  UNL1        0.3045
     81 C          12.1066   10.5823    0.0000 C.2     1  UNL1        0.3044
     82 C           9.5085   11.0823    0.0000 C.2     1  UNL1        0.3044
     83 C          13.8386    7.5822    0.0000 C.3     1  UNL1        0.0332
     84 C          12.9726   11.0823    0.0000 C.3     1  UNL1        0.0332
     85 C           6.9104    9.5822    0.0000 C.2     1  UNL1        0.3040
     86 C           9.5085   12.0823    0.0000 C.3     1  UNL1        0.0332
     87 C           6.0444    9.0822    0.0000 C.3     1  UNL1        0.0332
     88 H           7.4398   -1.8874    0.0000 H       1  UNL1        0.0315
     89 H           8.3314   -3.4471    0.0000 H       1  UNL1        0.0313
     90 H           9.2921   -1.6744    0.0000 H       1  UNL1        0.0271
     91 H           8.8824   -0.9893    0.0000 H       1  UNL1        0.0271
     92 H           6.3466    1.1437    0.0000 H       1  UNL1        0.0352
     93 H           8.9079   -3.1982    0.0000 H       1  UNL1        0.0268
     94 H           9.3017   -2.5038    0.0000 H       1  UNL1        0.0268
     95 H           8.8791   -0.1462    0.0000 H       1  UNL1        0.0274
     96 H           9.2836    0.5420    0.0000 H       1  UNL1        0.0274
     97 H           5.4251   -0.9734    0.0000 H       1  UNL1        0.0310
     98 H           5.8263   -1.6621    0.0000 H       1  UNL1        0.0310
     99 H           5.7398   -2.5551    0.0000 H       1  UNL1        0.0271
    100 H           5.3300   -3.2402    0.0000 H       1  UNL1        0.0271
    101 H           9.2868    1.3715    0.0000 H       1  UNL1        0.0272
    102 H           8.8876    2.0628    0.0000 H       1  UNL1        0.0272
    103 H           8.8623   -1.5048    0.0000 H       1  UNL1        0.0235
    104 H           9.3624   -0.7846    0.0000 H       1  UNL1        0.0235
    105 H           8.6422   -0.2844    0.0000 H       1  UNL1        0.0235
    106 H           7.4046   -5.0812    0.0000 H       1  UNL1        0.0603
    107 H           5.4941    0.2292    0.0000 H       1  UNL1        0.0572
    108 H           6.3400   -1.5779    0.0000 H       1  UNL1        0.0235
    109 H           5.4922   -1.8015    0.0000 H       1  UNL1        0.0235
    110 H           5.7158   -2.6493    0.0000 H       1  UNL1        0.0235
    111 H           5.3199   -4.1130    0.0000 H       1  UNL1        0.0290
    112 H           5.7137   -4.8074    0.0000 H       1  UNL1        0.0290
    113 H           8.6444   -0.8529    0.0000 H       1  UNL1        0.0238
    114 H           9.3607   -0.3472    0.0000 H       1  UNL1        0.0238
    115 H           8.8550    0.3691    0.0000 H       1  UNL1        0.0238
    116 H           5.3095    2.0773    0.0000 H       1  UNL1        0.0277
    117 H           5.7246    1.3954    0.0000 H       1  UNL1        0.0277
    118 H           8.3128    2.7712    0.0000 H       1  UNL1        0.0629
    119 H           7.3698    3.9342    0.0000 H       1  UNL1        0.0625
    120 H           9.3855   -4.0019    0.0000 H       1  UNL1        0.0563
    121 H           8.6922   -3.6087    0.0000 H       1  UNL1        0.0563
    122 H           7.7767   -5.4024    0.0000 H       1  UNL1        0.0237
    123 H           8.6254   -5.6228    0.0000 H       1  UNL1        0.0237
    124 H           8.8458   -4.7742    0.0000 H       1  UNL1        0.0237
    125 H           8.9486    1.9739    0.0000 H       1  UNL1        0.0236
    126 H           9.1657    2.8234    0.0000 H       1  UNL1        0.0236
    127 H           8.3162    3.0406    0.0000 H       1  UNL1        0.0236
    128 H           5.9202    4.2442    0.0000 H       1  UNL1        0.0236
    129 H           5.0699    4.4581    0.0000 H       1  UNL1        0.0236
    130 H           4.8560    3.6078    0.0000 H       1  UNL1        0.0236
    131 H           4.8920    3.6723    0.0000 H       1  UNL1        0.0236
    132 H           4.2816    3.0428    0.0000 H       1  UNL1        0.0236
    133 H           4.9111    2.4325    0.0000 H       1  UNL1        0.0236
    134 H           6.2877    4.9270    0.0000 H       1  UNL1        0.2099
    135 H           6.0010   -5.6523    0.0000 H       1  UNL1        0.0938
    136 H           9.9312   -5.0758    0.0000 H       1  UNL1        0.2094
    137 H           8.1055    4.2722    0.0000 H       1  UNL1        0.0937
    138 H           6.0010   -7.8922    0.0000 H       1  UNL1        0.0675
    139 H          10.0454    5.3922    0.0000 H       1  UNL1        0.0671
    140 H           4.5981   -8.0822    0.0000 H       1  UNL1        0.0648
    141 H           9.5085    6.7022    0.0000 H       1  UNL1        0.0651
    142 H           4.2690   -5.6523    0.0000 H       1  UNL1        0.0741
    143 H           3.7320   -6.9622    0.0000 H       1  UNL1        0.0652
    144 H           7.5644    6.6649    0.0000 H       1  UNL1        0.0587
    145 H           7.1658    5.9746    0.0000 H       1  UNL1        0.0587
    146 H           8.1055    6.8922    0.0000 H       1  UNL1        0.0643
    147 H          10.9114    4.8922    0.0000 H       1  UNL1        0.2101
    148 H           7.4040   -8.4622    0.0000 H       1  UNL1        0.0937
    149 H           4.5981   -9.0822    0.0000 H       1  UNL1        0.2100
    150 H           3.4030   -8.3922    0.0000 H       1  UNL1        0.2100
    151 H           8.1055    7.8922    0.0000 H       1  UNL1        0.2100
    152 H           9.8376    7.2722    0.0000 H       1  UNL1        0.0950
    153 H           8.2700   -9.5822    0.0000 H       1  UNL1        0.0671
    154 H           7.7331  -10.8923    0.0000 H       1  UNL1        0.0647
    155 H          11.7775    8.3922    0.0000 H       1  UNL1        0.0825
    156 H           2.0000   -5.9622    0.0000 H       1  UNL1        0.2951
    157 H           5.3905  -10.1646    0.0000 H       1  UNL1        0.0587
    158 H           5.7890  -10.8549    0.0000 H       1  UNL1        0.0587
    159 H           6.3301  -11.0823    0.0000 H       1  UNL1        0.0643
    160 H          11.2405    9.7022    0.0000 H       1  UNL1        0.0812
    161 H           9.1360   -9.0822    0.0000 H       1  UNL1        0.2101
    162 H           8.9715    8.7722    0.0000 H       1  UNL1        0.0670
    163 H           9.8376    9.8922    0.0000 H       1  UNL1        0.0801
    164 H           8.5991  -11.3923    0.0000 H       1  UNL1        0.2100
    165 H           6.3301  -12.0823    0.0000 H       1  UNL1        0.2100
    166 H           9.0410   10.0572    0.0000 H       1  UNL1        0.0725
    167 H           8.2439   10.0572    0.0000 H       1  UNL1        0.0725
    168 H          13.5286    7.0453    0.0000 H       1  UNL1        0.0342
    169 H          14.3755    7.2722    0.0000 H       1  UNL1        0.0342
    170 H          14.1486    8.1192    0.0000 H       1  UNL1        0.0342
    171 H          13.2826   10.5453    0.0000 H       1  UNL1        0.0342
    172 H          13.5095   11.3923    0.0000 H       1  UNL1        0.0342
    173 H          12.6626   11.6192    0.0000 H       1  UNL1        0.0342
    174 H          10.1285   12.0823    0.0000 H       1  UNL1        0.0342
    175 H           9.5085   12.7023    0.0000 H       1  UNL1        0.0342
    176 H           8.8885   12.0823    0.0000 H       1  UNL1        0.0342
    177 H           5.7344    9.6192    0.0000 H       1  UNL1        0.0342
    178 H           5.5074    8.7722    0.0000 H       1  UNL1        0.0342
    179 H           6.3544    8.5453    0.0000 H       1  UNL1        0.0342
@<TRIPOS>BOND
     1     1    44    1
     2     1    58    1
     3     2    50    1
     4     2    59    1
     5     3    52    1
     6     3   134    1
     7     4    53    1
     8     4   136    1
     9     5    58    1
    10     5    64    1
    11     6    59    1
    12     6    66    1
    13     7    60    1
    14     7    68    1
    15     8    61    1
    16     8   147    1
    17     9    62    1
    18     9   149    1
    19    10    63    1
    20    10    70    1
    21    11    65    1
    22    11   150    1
    23    12    67    1
    24    12   151    1
    25    13    68    1
    26    13    74    1
    27    14    69    1
    28    14   156    1
    29    15    69    2
    30    16    70    1
    31    16    77    1
    32    17    71    1
    33    17   161    1
    34    18    72    1
    35    18   164    1
    36    19    73    1
    37    19    80    1
    38    20    75    1
    39    20   165    1
    40    21    76    1
    41    21    81    1
    42    22    78    1
    43    22    82    1
    44    23    79    1
    45    23    85    1
    46    24    80    2
    47    25    81    2
    48    26    82    2
    49    27    85    2
    50    28    29    1
    51    28    31    1
    52    28    33    1
    53    28    43    1
    54    29    30    1
    55    29    40    1
    56    29    88    1
    57    30    32    1
    58    30    41    1
    59    30    46    1
    60    31    34    1
    61    31    39    1
    62    31    48    1
    63    32    36    1
    64    32    37    1
    65    32    89    1
    66    33    36    1
    67    33    90    1
    68    33    91    1
    69    34    35    1
    70    34    45    2
    71    35    38    1
    72    35    49    1
    73    35    92    1
    74    36    93    1
    75    36    94    1
    76    37    44    1
    77    37    53    1
    78    37    54    1
    79    38    42    1
    80    38    50    1
    81    38    55    1
    82    39    42    1
    83    39    95    1
    84    39    96    1
    85    40    45    1
    86    40    97    1
    87    40    98    1
    88    41    47    1
    89    41    99    1
    90    41   100    1
    91    42   101    1
    92    42   102    1
    93    43   103    1
    94    43   104    1
    95    43   105    1
    96    44    47    1
    97    44   106    1
    98    45   107    1
    99    46   108    1
   100    46   109    1
   101    46   110    1
   102    47   111    1
   103    47   112    1
   104    48   113    1
   105    48   114    1
   106    48   115    1
   107    49    51    1
   108    49   116    1
   109    49   117    1
   110    50    52    1
   111    50   118    1
   112    51    52    1
   113    51    56    1
   114    51    57    1
   115    52   119    1
   116    53   120    1
   117    53   121    1
   118    54   122    1
   119    54   123    1
   120    54   124    1
   121    55   125    1
   122    55   126    1
   123    55   127    1
   124    56   131    1
   125    56   132    1
   126    56   133    1
   127    57   128    1
   128    57   129    1
   129    57   130    1
   130    58    60    1
   131    58   135    1
   132    59    61    1
   133    59   137    1
   134    60    62    1
   135    60   138    1
   136    61    63    1
   137    61   139    1
   138    62    65    1
   139    62   140    1
   140    63    67    1
   141    63   141    1
   142    64    65    1
   143    64    69    1
   144    64   142    1
   145    65   143    1
   146    66    67    1
   147    66   144    1
   148    66   145    1
   149    67   146    1
   150    68    71    1
   151    68   148    1
   152    70    73    1
   153    70   152    1
   154    71    72    1
   155    71   153    1
   156    72    75    1
   157    72   154    1
   158    73    76    1
   159    73   155    1
   160    74    75    1
   161    74   157    1
   162    74   158    1
   163    75   159    1
   164    76    78    1
   165    76   160    1
   166    77    78    1
   167    77    79    1
   168    77   162    1
   169    78   163    1
   170    79   166    1
   171    79   167    1
   172    80    83    1
   173    81    84    1
   174    82    86    1
   175    83   168    1
   176    83   169    1
   177    83   170    1
   178    84   171    1
   179    84   172    1
   180    84   173    1
   181    85    87    1
   182    86   174    1
   183    86   175    1
   184    86   176    1
   185    87   177    1
   186    87   178    1
   187    87   179    1
