@<TRIPOS>MOLECULE
IMPHY014394
 55 59 0 0 0
SMALL
GASTEIGER

@<TRIPOS>ATOM
      1 O           3.4447    1.7384    0.0000 O.3     1  UNL1       -0.3647
      2 O           5.8331    1.4626    0.0000 O.3     1  UNL1       -0.3883
      3 O           4.1118    2.7334    0.0000 O.3     1  UNL1       -0.3921
      4 O           9.3465   -2.5566    0.0000 O.3     1  UNL1       -0.4802
      5 O           9.3264   -0.8246    0.0000 O.2     1  UNL1       -0.2504
      6 C           5.1945   -0.2011    0.0000 C.3     1  UNL1        0.0055
      7 C           5.1945   -1.2011    0.0000 C.3     1  UNL1       -0.0009
      8 C           4.1118    1.0014    0.0000 C.3     1  UNL1        0.1218
      9 C           3.6118    0.1353    0.0000 C.3     1  UNL1       -0.0043
     10 C           6.0605   -1.7011    0.0000 C.3     1  UNL1       -0.0225
     11 C           2.5369    1.3333    0.0000 C.3     1  UNL1        0.0639
     12 C           5.0900    0.7934    0.0000 C.3     1  UNL1        0.0925
     13 C           4.2809   -0.6078    0.0000 C.3     1  UNL1       -0.0389
     14 C           2.6400    0.3445    0.0000 C.3     1  UNL1       -0.0206
     15 C           6.9265   -1.2011    0.0000 C.3     1  UNL1       -0.0198
     16 C           6.0605    0.2989    0.0000 C.3     1  UNL1       -0.0443
     17 C           6.9265   -0.2011    0.0000 C.3     1  UNL1       -0.0481
     18 C           6.0444   -2.7426    0.0000 C.3     1  UNL1       -0.0470
     19 C           7.8365   -1.7079    0.0000 C.3     1  UNL1        0.0681
     20 C           4.6118    1.8674    0.0000 C.3     1  UNL1        0.0759
     21 C           5.1945   -2.2011    0.0000 C.3     1  UNL1       -0.0589
     22 C           6.9425   -3.2703    0.0000 C.3     1  UNL1       -0.0515
     23 C           7.8446   -2.7495    0.0000 C.3     1  UNL1       -0.0372
     24 C           8.3265   -0.8362    0.0000 C.3     1  UNL1       -0.0491
     25 C           8.8365   -1.6964    0.0000 C.2     1  UNL1        0.3110
     26 H           4.4584   -1.6261    0.0000 H       1  UNL1        0.0337
     27 H           3.1858   -0.6002    0.0000 H       1  UNL1        0.0331
     28 H           1.8008    1.7583    0.0000 H       1  UNL1        0.0599
     29 H           4.9295    1.3923    0.0000 H       1  UNL1        0.0628
     30 H           3.7794   -0.9722    0.0000 H       1  UNL1        0.0275
     31 H           4.5909   -1.1448    0.0000 H       1  UNL1        0.0275
     32 H           2.0200    0.3454    0.0000 H       1  UNL1        0.0294
     33 H           2.5739   -0.2719    0.0000 H       1  UNL1        0.0294
     34 H           7.6594   -0.7704    0.0000 H       1  UNL1        0.0317
     35 H           6.4590    0.7739    0.0000 H       1  UNL1        0.0272
     36 H           5.6620    0.7739    0.0000 H       1  UNL1        0.0272
     37 H           7.5371   -0.3087    0.0000 H       1  UNL1        0.0269
     38 H           7.1386    0.3815    0.0000 H       1  UNL1        0.0269
     39 H           5.4353   -2.6271    0.0000 H       1  UNL1        0.0271
     40 H           5.8264   -3.3230    0.0000 H       1  UNL1        0.0271
     41 H           5.0868    1.4688    0.0000 H       1  UNL1        0.0587
     42 H           5.0868    2.2659    0.0000 H       1  UNL1        0.0587
     43 H           4.8845   -1.6641    0.0000 H       1  UNL1        0.0235
     44 H           4.6575   -2.5111    0.0000 H       1  UNL1        0.0235
     45 H           5.5045   -2.7380    0.0000 H       1  UNL1        0.0235
     46 H           6.5415   -3.7432    0.0000 H       1  UNL1        0.0266
     47 H           7.3398   -3.7463    0.0000 H       1  UNL1        0.0266
     48 H           8.0581   -3.3316    0.0000 H       1  UNL1        0.0276
     49 H           8.4546   -2.6387    0.0000 H       1  UNL1        0.0276
     50 H           5.7042    2.0690    0.0000 H       1  UNL1        0.2099
     51 H           8.8670   -1.1400    0.0000 H       1  UNL1        0.0240
     52 H           8.6303   -0.2957    0.0000 H       1  UNL1        0.0240
     53 H           7.7860   -0.5324    0.0000 H       1  UNL1        0.0240
     54 H           4.4218    3.2703    0.0000 H       1  UNL1        0.2095
     55 H           9.9664   -2.5494    0.0000 H       1  UNL1        0.2951
@<TRIPOS>BOND
     1     1     8    1
     2     1    11    1
     3    12     2    1
     4     2    50    1
     5     3    20    1
     6     3    54    1
     7     4    25    1
     8     4    55    1
     9     5    25    2
    10     6     7    1
    11     6    12    1
    12     6    13    1
    13     6    16    1
    14     7    10    1
    15     7    11    1
    16     7    26    1
    17     8     9    1
    18     8    12    1
    19     8    20    1
    20     9    13    1
    21     9    14    1
    22     9    27    1
    23    10    15    1
    24    10    18    1
    25    10    21    1
    26    11    14    1
    27    11    28    1
    28    12    29    1
    29    13    30    1
    30    13    31    1
    31    14    32    1
    32    14    33    1
    33    15    17    1
    34    15    19    1
    35    15    34    1
    36    16    17    1
    37    16    35    1
    38    16    36    1
    39    17    37    1
    40    17    38    1
    41    18    22    1
    42    18    39    1
    43    18    40    1
    44    19    23    1
    45    19    24    1
    46    19    25    1
    47    20    41    1
    48    20    42    1
    49    21    43    1
    50    21    44    1
    51    21    45    1
    52    22    23    1
    53    22    46    1
    54    22    47    1
    55    23    48    1
    56    23    49    1
    57    24    51    1
    58    24    52    1
    59    24    53    1
