@<TRIPOS>MOLECULE
IMPHY009133
 77 82 0 0 0
SMALL
GASTEIGER

@<TRIPOS>ATOM
      1 O           6.3640    3.7929    0.0000 O.3     1  UNL1       -0.3673
      2 O           5.7605    0.7656    0.0000 O.3     1  UNL1       -0.3876
      3 O           3.8950    4.1258    0.0000 O.3     1  UNL1       -0.3824
      4 O           3.1286   -1.1711    0.0000 O.3     1  UNL1       -0.3850
      5 O           4.3024    5.3420    0.0000 O.3     1  UNL1       -0.3862
      6 O           5.0051   -2.0446    0.0000 O.3     1  UNL1       -0.3823
      7 O           4.5338    2.1918    0.0000 O.2     1  UNL1       -0.2966
      8 O           3.0048   -3.3602    0.0000 O.3     1  UNL1       -0.4548
      9 O           2.0000   -4.7710    0.0000 O.2     1  UNL1       -0.2453
     10 C           4.7771    0.5843    0.0000 C.3     1  UNL1        0.0774
     11 C           4.7610    1.6258    0.0000 C.3     1  UNL1       -0.0053
     12 C           3.8790    0.0566    0.0000 C.3     1  UNL1        0.0285
     13 C           3.8950    2.1258    0.0000 C.3     1  UNL1       -0.0206
     14 C           3.8950    3.1258    0.0000 C.3     1  UNL1        0.0630
     15 C           4.7610    3.6258    0.0000 C.3     1  UNL1        0.1323
     16 C           4.1047   -0.9540    0.0000 C.3     1  UNL1        0.1058
     17 C           5.6270    3.1258    0.0000 C.3     1  UNL1        0.0916
     18 C           5.6270    2.1258    0.0000 C.3     1  UNL1       -0.0180
     19 C           2.9770    0.5774    0.0000 C.3     1  UNL1       -0.0420
     20 C           2.9850    1.6190    0.0000 C.3     1  UNL1       -0.0482
     21 C           5.5501   -0.1046    0.0000 C.3     1  UNL1       -0.0204
     22 C           5.1354   -1.0534    0.0000 C.3     1  UNL1       -0.0179
     23 C           4.9702    4.5977    0.0000 C.3     1  UNL1        0.1136
     24 C           5.9589    4.7007    0.0000 C.3     1  UNL1        0.0944
     25 C           4.0096   -1.9494    0.0000 C.3     1  UNL1        0.1293
     26 C           4.8988    3.1227    0.0000 C.2     1  UNL1        0.1449
     27 C           2.8956   -0.1246    0.0000 C.3     1  UNL1       -0.0542
     28 C           3.1890    3.8341    0.0000 C.3     1  UNL1       -0.0497
     29 C           5.6969    3.7317    0.0000 C.3     1  UNL1        0.0353
     30 C           3.9145   -2.9449    0.0000 C.3     1  UNL1        0.1380
     31 C           3.0141   -1.8543    0.0000 C.3     1  UNL1       -0.0298
     32 C           4.7290   -3.5250    0.0000 C.3     1  UNL1        0.0089
     33 C           4.6339   -4.5205    0.0000 C.2     1  UNL1       -0.0594
     34 C           2.9097   -4.3557    0.0000 C.2     1  UNL1        0.3352
     35 C           3.7242   -4.9358    0.0000 C.2     1  UNL1        0.0326
     36 C           5.4484   -5.1006    0.0000 C.3     1  UNL1       -0.0429
     37 C           3.6291   -5.9313    0.0000 C.3     1  UNL1       -0.0330
     38 H           5.4971    1.2008    0.0000 H       1  UNL1        0.0332
     39 H           3.1589    2.5508    0.0000 H       1  UNL1        0.0315
     40 H           6.3632    2.7008    0.0000 H       1  UNL1        0.0626
     41 H           5.8391    1.5432    0.0000 H       1  UNL1        0.0295
     42 H           6.2376    2.2335    0.0000 H       1  UNL1        0.0295
     43 H           2.3669    0.6882    0.0000 H       1  UNL1        0.0272
     44 H           2.7634   -0.0047    0.0000 H       1  UNL1        0.0272
     45 H           2.7804    2.2043    0.0000 H       1  UNL1        0.0269
     46 H           2.3733    1.5176    0.0000 H       1  UNL1        0.0269
     47 H           6.0890   -0.4112    0.0000 H       1  UNL1        0.0294
     48 H           5.9117    0.3991    0.0000 H       1  UNL1        0.0294
     49 H           5.0114   -1.6608    0.0000 H       1  UNL1        0.0295
     50 H           5.7265   -1.2406    0.0000 H       1  UNL1        0.0295
     51 H           5.1932    5.1762    0.0000 H       1  UNL1        0.0649
     52 H           6.3839    5.4368    0.0000 H       1  UNL1        0.0627
     53 H           2.7832    0.4851    0.0000 H       1  UNL1        0.0237
     54 H           2.2858   -0.2370    0.0000 H       1  UNL1        0.0237
     55 H           3.0079   -0.7343    0.0000 H       1  UNL1        0.0237
     56 H           3.6281    4.2718    0.0000 H       1  UNL1        0.0240
     57 H           2.7513    4.2732    0.0000 H       1  UNL1        0.0240
     58 H           2.7499    3.3963    0.0000 H       1  UNL1        0.0240
     59 H           5.9074    3.1485    0.0000 H       1  UNL1        0.0368
     60 H           6.3164    3.7572    0.0000 H       1  UNL1        0.0368
     61 H           6.1627    0.2937    0.0000 H       1  UNL1        0.2102
     62 H           3.8950    4.7458    0.0000 H       1  UNL1        0.2104
     63 H           2.5784   -0.8852    0.0000 H       1  UNL1        0.2103
     64 H           3.2221   -2.4518    0.0000 H       1  UNL1        0.0767
     65 H           3.0731   -1.2371    0.0000 H       1  UNL1        0.0259
     66 H           2.3970   -1.7953    0.0000 H       1  UNL1        0.0259
     67 H           2.9552   -2.4715    0.0000 H       1  UNL1        0.0259
     68 H           4.4950    5.9313    0.0000 H       1  UNL1        0.2100
     69 H           5.2626   -2.6086    0.0000 H       1  UNL1        0.2104
     70 H           5.3266   -3.6903    0.0000 H       1  UNL1        0.0347
     71 H           4.9955   -2.9652    0.0000 H       1  UNL1        0.0347
     72 H           5.0887   -5.6056    0.0000 H       1  UNL1        0.0275
     73 H           5.9534   -5.4603    0.0000 H       1  UNL1        0.0275
     74 H           5.8081   -4.5956    0.0000 H       1  UNL1        0.0275
     75 H           3.0119   -5.8723    0.0000 H       1  UNL1        0.0280
     76 H           3.5701   -6.5485    0.0000 H       1  UNL1        0.0280
     77 H           4.2462   -5.9903    0.0000 H       1  UNL1        0.0280
@<TRIPOS>BOND
     1     1    17    1
     2     1    24    1
     3    10     2    1
     4     2    61    1
     5    15     3    1
     6     3    62    1
     7    16     4    1
     8     4    63    1
     9    23     5    1
    10     5    68    1
    11    25     6    1
    12     6    69    1
    13     7    26    2
    14     8    30    1
    15     8    34    1
    16     9    34    2
    17    10    11    1
    18    10    12    1
    19    10    21    1
    20    11    13    1
    21    11    18    1
    22    11    38    1
    23    12    16    1
    24    12    19    1
    25    12    27    1
    26    13    14    1
    27    13    20    1
    28    13    39    1
    29    14    15    1
    30    14    26    1
    31    14    28    1
    32    15    17    1
    33    15    23    1
    34    16    22    1
    35    16    25    1
    36    17    18    1
    37    17    40    1
    38    18    41    1
    39    18    42    1
    40    19    20    1
    41    19    43    1
    42    19    44    1
    43    20    45    1
    44    20    46    1
    45    21    22    1
    46    21    47    1
    47    21    48    1
    48    22    49    1
    49    22    50    1
    50    23    24    1
    51    23    51    1
    52    24    29    1
    53    24    52    1
    54    25    30    1
    55    25    31    1
    56    26    29    1
    57    27    53    1
    58    27    54    1
    59    27    55    1
    60    28    56    1
    61    28    57    1
    62    28    58    1
    63    29    59    1
    64    29    60    1
    65    30    32    1
    66    30    64    1
    67    31    65    1
    68    31    66    1
    69    31    67    1
    70    32    33    1
    71    32    70    1
    72    32    71    1
    73    33    35    2
    74    33    36    1
    75    34    35    1
    76    35    37    1
    77    36    72    1
    78    36    73    1
    79    36    74    1
    80    37    75    1
    81    37    76    1
    82    37    77    1
