@<TRIPOS>MOLECULE
IMPHY006023
 37 37 0 0 0
SMALL
GASTEIGER

@<TRIPOS>ATOM
      1 O           4.8660    1.1160    0.0000 O.3     1  UNL1       -0.4793
      2 OXT         3.3660    0.2500    0.0000 O.2     1  UNL1       -0.2489
      3 O           5.8660    1.1160    0.0000 O.2     1  UNL1       -0.2758
      4 O          10.3660    1.9820    0.0000 O.3     1  UNL1       -0.4795
      5 OXT         8.8660    2.8481    0.0000 O.2     1  UNL1       -0.2493
      6 N           5.8660   -0.6160    0.0000 N.am    1  UNL1       -0.3023
      7 N           9.3660    0.2500    0.0000 N.3     1  UNL1       -0.3184
      8 C           3.3660   -1.4820    0.0000 C.3     1  UNL1       -0.0143
      9 C           2.5000   -0.9821    0.0000 C.3     1  UNL1       -0.0251
     10 C           2.5000   -1.9820    0.0000 C.2     1  UNL1       -0.0726
     11 C           4.3660   -1.4820    0.0000 C.3     1  UNL1       -0.0173
     12 CA          4.8660   -0.6160    0.0000 C.3     1  UNL1        0.1208
     13 C           2.0000   -2.8481    0.0000 C.2     1  UNL1       -0.0992
     14 C           4.3660    0.2500    0.0000 C.2     1  UNL1        0.3253
     15 C           6.3660    0.2500    0.0000 C.2     1  UNL1        0.2137
     16 C           7.3660    0.2500    0.0000 C.3     1  UNL1        0.0259
     17 C           7.8660    1.1160    0.0000 C.3     1  UNL1       -0.0191
     18 CA          8.8660    1.1160    0.0000 C.3     1  UNL1        0.1037
     19 C           9.3660    1.9820    0.0000 C.2     1  UNL1        0.3217
     20 H           3.5265   -0.8832    0.0000 H       1  UNL1        0.0349
     21 H           2.7120   -0.3994    0.0000 H       1  UNL1        0.0316
     22 H           1.8894   -0.8744    0.0000 H       1  UNL1        0.0316
     23 H           4.2584   -2.0926    0.0000 H       1  UNL1        0.0294
     24 H           4.9486   -1.6941    0.0000 H       1  UNL1        0.0294
     25 HA          5.1760   -1.1530    0.0000 H       1  UNL1        0.0614
     26 H           1.3800   -2.8481    0.0000 H       1  UNL1        0.0534
     27 H           2.3100   -3.3850    0.0000 H       1  UNL1        0.0534
     28 H           6.1760   -1.1530    0.0000 H       1  UNL1        0.1495
     29 H           7.2584   -0.3606    0.0000 H       1  UNL1        0.0359
     30 H           7.9486    0.0379    0.0000 H       1  UNL1        0.0359
     31 H           7.9737    1.7266    0.0000 H       1  UNL1        0.0290
     32 H           7.2834    1.3281    0.0000 H       1  UNL1        0.0290
     33 HA          9.4860    1.1160    0.0000 H       1  UNL1        0.0574
     34 H           4.5560    1.6530    0.0000 H       1  UNL1        0.2951
     35 H1          9.9860    0.2500    0.0000 H       1  UNL1        0.1190
     36 H2          9.0560   -0.2869    0.0000 H       1  UNL1        0.1190
     37 H          10.6760    2.5190    0.0000 H       1  UNL1        0.2951
@<TRIPOS>BOND
     1     1    14    1
     2     1    34    1
     3     2    14    2
     4     3    15    2
     5     4    19    1
     6     4    37    1
     7     5    19    2
     8    12     6    1
     9     6    15   am
    10     6    28    1
    11    18     7    1
    12     7    35    1
    13     7    36    1
    14     8     9    1
    15     8    10    1
    16     8    11    1
    17     8    20    1
    18     9    10    1
    19     9    21    1
    20     9    22    1
    21    10    13    2
    22    11    12    1
    23    11    23    1
    24    11    24    1
    25    12    14    1
    26    12    25    1
    27    13    26    1
    28    13    27    1
    29    15    16    1
    30    16    17    1
    31    16    29    1
    32    16    30    1
    33    17    18    1
    34    17    31    1
    35    17    32    1
    36    18    19    1
    37    18    33    1
