@<TRIPOS>MOLECULE
IMPHY005659
 92 94 0 0 0
SMALL
GASTEIGER

@<TRIPOS>ATOM
      1 O           8.8533    1.2568    0.0000 O.2     1  UNL1       -0.5097
      2 O           3.8660   -0.5584    0.0000 O.2     1  UNL1       -0.5097
      3 O          10.5853   -1.7432    0.0000 O.2     1  UNL1       -0.5056
      4 O           5.5981    2.4416    0.0000 O.2     1  UNL1       -0.5056
      5 O          12.3174    1.2568    0.0000 O.2     1  UNL1       -0.2908
      6 O           2.1340    2.4417    0.0000 O.2     1  UNL1       -0.2908
      7 O           7.5677    0.7889    0.0000 O.3     1  UNL1       -0.5060
      8 O           5.2560   -2.0301    0.0000 O.3     1  UNL1       -0.5055
      9 O           8.1692   -2.6225    0.0000 O.3     1  UNL1       -0.5055
     10 O          12.3174   -1.7432    0.0000 O.2     1  UNL1       -0.2918
     11 O           4.7320    3.9416    0.0000 O.2     1  UNL1       -0.2918
     12 O           5.2148   -3.1435    0.0000 O.2     1  UNL1       -0.2918
     13 C          10.5853    1.2568    0.0000 C.3     1  UNL1        0.0853
     14 C           3.0000    0.9417    0.0000 C.3     1  UNL1        0.0853
     15 C           9.7193   -0.2432    0.0000 C.2     1  UNL1        0.0375
     16 C           4.7321    0.9417    0.0000 C.2     1  UNL1        0.0375
     17 C           9.7193    0.7568    0.0000 C.2     1  UNL1        0.1141
     18 C           3.8660    0.4416    0.0000 C.2     1  UNL1        0.1141
     19 C           8.8533   -0.7432    0.0000 C.3     1  UNL1        0.0112
     20 C           5.5981    0.4416    0.0000 C.3     1  UNL1        0.0112
     21 C          11.4513    0.7568    0.0000 C.2     1  UNL1        0.1828
     22 C           3.0000    1.9417    0.0000 C.2     1  UNL1        0.1828
     23 C           7.8684   -0.9168    0.0000 C.ar    1  UNL1        0.0411
     24 C           6.2409   -0.3244    0.0000 C.ar    1  UNL1        0.0411
     25 C          11.4513   -0.2432    0.0000 C.2     1  UNL1        0.1024
     26 C           3.8660    2.4416    0.0000 C.2     1  UNL1        0.1024
     27 C          10.5853   -0.7432    0.0000 C.2     1  UNL1        0.1374
     28 C           4.7320    1.9416    0.0000 C.2     1  UNL1        0.1374
     29 C          11.0853    2.1228    0.0000 C.3     1  UNL1       -0.0458
     30 C          10.0853    2.1228    0.0000 C.3     1  UNL1       -0.0458
     31 C           2.0000    0.9417    0.0000 C.3     1  UNL1       -0.0458
     32 C           2.5000    0.0756    0.0000 C.3     1  UNL1       -0.0458
     33 C           7.2257   -0.1508    0.0000 C.ar    1  UNL1        0.1308
     34 C           5.8988   -1.2641    0.0000 C.ar    1  UNL1        0.1378
     35 C           7.5264   -1.8564    0.0000 C.ar    1  UNL1        0.1378
     36 C           6.5416   -2.0302    0.0000 C.ar    1  UNL1        0.1008
     37 C          12.3174   -0.7432    0.0000 C.2     1  UNL1        0.1701
     38 C           3.8660    3.4416    0.0000 C.2     1  UNL1        0.1701
     39 C          13.1834   -0.2432    0.0000 C.3     1  UNL1        0.0105
     40 C           3.0000    3.9416    0.0000 C.3     1  UNL1        0.0105
     41 C           6.1995   -2.9698    0.0000 C.2     1  UNL1        0.1702
     42 C           6.8423   -3.7359    0.0000 C.3     1  UNL1        0.0105
     43 C          14.0494   -0.7432    0.0000 C.3     1  UNL1       -0.0489
     44 C           3.0000    4.9416    0.0000 C.3     1  UNL1       -0.0489
     45 C           6.5003   -4.6756    0.0000 C.3     1  UNL1       -0.0489
     46 C          14.9154   -0.2432    0.0000 C.3     1  UNL1       -0.0649
     47 C           2.1340    5.4416    0.0000 C.3     1  UNL1       -0.0649
     48 C           7.1431   -5.4416    0.0000 C.3     1  UNL1       -0.0649
     49 H           8.7103   -1.3465    0.0000 H       1  UNL1        0.0366
     50 H           8.6412   -0.1606    0.0000 H       1  UNL1        0.0366
     51 H           6.1920    0.6194    0.0000 H       1  UNL1        0.0366
     52 H           5.1995   -0.0333    0.0000 H       1  UNL1        0.0366
     53 H          11.6222    1.8128    0.0000 H       1  UNL1        0.0243
     54 H          11.3953    2.6598    0.0000 H       1  UNL1        0.0243
     55 H          10.5484    2.4328    0.0000 H       1  UNL1        0.0243
     56 H          10.6222    2.4328    0.0000 H       1  UNL1        0.0243
     57 H           9.7753    2.6598    0.0000 H       1  UNL1        0.0243
     58 H           9.5484    1.8128    0.0000 H       1  UNL1        0.0243
     59 H           2.0000    1.5616    0.0000 H       1  UNL1        0.0243
     60 H           1.3800    0.9416    0.0000 H       1  UNL1        0.0243
     61 H           2.0000    0.3217    0.0000 H       1  UNL1        0.0243
     62 H           1.9631    0.3856    0.0000 H       1  UNL1        0.0243
     63 H           2.1900   -0.4613    0.0000 H       1  UNL1        0.0243
     64 H           3.0369   -0.2344    0.0000 H       1  UNL1        0.0243
     65 H           8.3163    0.9468    0.0000 H       1  UNL1        0.2917
     66 H           3.3291   -0.8684    0.0000 H       1  UNL1        0.2917
     67 H          13.5819    0.2318    0.0000 H       1  UNL1        0.0345
     68 H          12.7849    0.2318    0.0000 H       1  UNL1        0.0345
     69 H           2.3894    4.0493    0.0000 H       1  UNL1        0.0345
     70 H           2.7879    3.3590    0.0000 H       1  UNL1        0.0345
     71 H          11.1222   -2.0532    0.0000 H       1  UNL1        0.2922
     72 H           5.5981    3.0616    0.0000 H       1  UNL1        0.2922
     73 H           7.3793   -4.0459    0.0000 H       1  UNL1        0.0345
     74 H           7.2409   -3.2609    0.0000 H       1  UNL1        0.0345
     75 H           7.1692    1.2639    0.0000 H       1  UNL1        0.2922
     76 H          13.6509   -1.2181    0.0000 H       1  UNL1        0.0267
     77 H          14.4479   -1.2181    0.0000 H       1  UNL1        0.0267
     78 H           3.6106    4.8340    0.0000 H       1  UNL1        0.0267
     79 H           3.2120    5.5242    0.0000 H       1  UNL1        0.0267
     80 H           4.6455   -1.9225    0.0000 H       1  UNL1        0.2922
     81 H           8.7798   -2.5149    0.0000 H       1  UNL1        0.2922
     82 H           5.9634   -4.3656    0.0000 H       1  UNL1        0.0267
     83 H           6.1018   -5.1505    0.0000 H       1  UNL1        0.0267
     84 H          15.2254   -0.7801    0.0000 H       1  UNL1        0.0230
     85 H          15.4524    0.0668    0.0000 H       1  UNL1        0.0230
     86 H          14.6054    0.2938    0.0000 H       1  UNL1        0.0230
     87 H           2.4440    5.9786    0.0000 H       1  UNL1        0.0230
     88 H           1.5970    5.7516    0.0000 H       1  UNL1        0.0230
     89 H           1.8240    4.9047    0.0000 H       1  UNL1        0.0230
     90 H           6.6682   -5.8402    0.0000 H       1  UNL1        0.0230
     91 H           7.5417   -5.9166    0.0000 H       1  UNL1        0.0230
     92 H           7.6181   -5.0431    0.0000 H       1  UNL1        0.0230
@<TRIPOS>BOND
     1     1    17    1
     2     1    65    1
     3     2    18    1
     4     2    66    1
     5     3    27    1
     6     3    71    1
     7     4    28    1
     8     4    72    1
     9     5    21    2
    10     6    22    2
    11     7    33    1
    12     7    75    1
    13     8    34    1
    14     8    80    1
    15     9    35    1
    16     9    81    1
    17    10    37    2
    18    11    38    2
    19    12    41    2
    20    13    17    1
    21    13    21    1
    22    13    29    1
    23    13    30    1
    24    14    18    1
    25    14    22    1
    26    14    31    1
    27    14    32    1
    28    15    17    2
    29    15    19    1
    30    15    27    1
    31    16    18    2
    32    16    20    1
    33    16    28    1
    34    19    23    1
    35    19    49    1
    36    19    50    1
    37    20    24    1
    38    20    51    1
    39    20    52    1
    40    21    25    1
    41    22    26    1
    42    23    33   ar
    43    23    35   ar
    44    24    33   ar
    45    24    34   ar
    46    25    27    2
    47    25    37    1
    48    26    28    2
    49    26    38    1
    50    29    53    1
    51    29    54    1
    52    29    55    1
    53    30    56    1
    54    30    57    1
    55    30    58    1
    56    31    59    1
    57    31    60    1
    58    31    61    1
    59    32    62    1
    60    32    63    1
    61    32    64    1
    62    34    36   ar
    63    35    36   ar
    64    36    41    1
    65    37    39    1
    66    38    40    1
    67    39    43    1
    68    39    67    1
    69    39    68    1
    70    40    44    1
    71    40    69    1
    72    40    70    1
    73    41    42    1
    74    42    45    1
    75    42    73    1
    76    42    74    1
    77    43    46    1
    78    43    76    1
    79    43    77    1
    80    44    47    1
    81    44    78    1
    82    44    79    1
    83    45    48    1
    84    45    82    1
    85    45    83    1
    86    46    84    1
    87    46    85    1
    88    46    86    1
    89    47    87    1
    90    47    88    1
    91    47    89    1
    92    48    90    1
    93    48    91    1
    94    48    92    1
