@<TRIPOS>MOLECULE
IMPHY008706
 23 23 0 0 0
SMALL
GASTEIGER

@<TRIPOS>ATOM
      1 O           5.1350    1.6550    0.0000 O.3     1  UNL1       -0.4614
      2 O           2.5369    0.1550    0.0000 O.3     1  UNL1       -0.5058
      3 O           4.2690   -2.8450    0.0000 O.3     1  UNL1       -0.5066
      4 O           3.4030    1.6550    0.0000 O.2     1  UNL1       -0.2448
      5 C           4.2690    0.1550    0.0000 C.ar    1  UNL1        0.1005
      6 C           3.4030   -0.3450    0.0000 C.ar    1  UNL1        0.1343
      7 C           5.1350   -0.3450    0.0000 C.ar    1  UNL1       -0.0408
      8 C           3.4030   -1.3450    0.0000 C.ar    1  UNL1        0.0221
      9 C           4.2690    1.1550    0.0000 C.2     1  UNL1        0.3427
     10 C           4.2690   -1.8450    0.0000 C.ar    1  UNL1        0.1204
     11 C           5.1350   -1.3450    0.0000 C.ar    1  UNL1       -0.0192
     12 C           5.1350    2.6550    0.0000 C.3     1  UNL1        0.0900
     13 C           6.0010    3.1550    0.0000 C.3     1  UNL1       -0.0306
     14 H           5.6720   -0.0350    0.0000 H       1  UNL1        0.0628
     15 H           2.8660   -1.6550    0.0000 H       1  UNL1        0.0691
     16 H           5.6720   -1.6550    0.0000 H       1  UNL1        0.0654
     17 H           4.9230    3.2376    0.0000 H       1  UNL1        0.0695
     18 H           4.5244    2.5473    0.0000 H       1  UNL1        0.0695
     19 H           6.3110    2.6181    0.0000 H       1  UNL1        0.0262
     20 H           6.5380    3.4650    0.0000 H       1  UNL1        0.0262
     21 H           5.6910    3.6919    0.0000 H       1  UNL1        0.0262
     22 H           2.0000   -0.1550    0.0000 H       1  UNL1        0.2922
     23 H           4.8059   -3.1550    0.0000 H       1  UNL1        0.2921
@<TRIPOS>BOND
     1     1     9    1
     2     1    12    1
     3     2     6    1
     4     2    22    1
     5     3    10    1
     6     3    23    1
     7     4     9    2
     8     5     6   ar
     9     5     7   ar
    10     5     9    1
    11     6     8   ar
    12     7    11   ar
    13     7    14    1
    14     8    10   ar
    15     8    15    1
    16    10    11   ar
    17    11    16    1
    18    12    13    1
    19    12    17    1
    20    12    18    1
    21    13    19    1
    22    13    20    1
    23    13    21    1
