@<TRIPOS>MOLECULE
IMPHY008404
 58 62 0 0 0
SMALL
GASTEIGER

@<TRIPOS>ATOM
      1 O           3.9061   -1.8045    0.0000 O.3     1  UNL1       -0.4833
      2 O           2.1359    0.2543    0.0000 O.3     1  UNL1       -0.3875
      3 O           7.4260   -1.8045    0.0000 O.2     1  UNL1       -0.4620
      4 O          11.8162    1.7991    0.0000 O.3     1  UNL1       -0.4815
      5 O           7.4144    1.2648    0.0000 O.2     1  UNL1       -0.2864
      6 O          10.0680   -1.2423    0.0000 O.3     1  UNL1       -0.4938
      7 C           3.0000   -1.2906    0.0000 C.3     1  UNL1        0.1310
      8 C           3.0000   -0.2490    0.0000 C.3     1  UNL1        0.0983
      9 C           3.9061    0.2648    0.0000 C.3     1  UNL1        0.0057
     10 C           4.8000   -0.2698    0.0000 C.ar    1  UNL1       -0.0022
     11 C           4.8000   -1.2698    0.0000 C.ar    1  UNL1        0.1282
     12 C           2.0000   -1.2945    0.0000 C.3     1  UNL1       -0.0227
     13 C           2.5033   -2.1586    0.0000 C.3     1  UNL1       -0.0227
     14 C           5.6660    0.2302    0.0000 C.ar    1  UNL1       -0.0406
     15 C           6.5320   -0.2698    0.0000 C.ar    1  UNL1        0.0650
     16 C           5.6660   -1.7698    0.0000 C.ar    1  UNL1        0.0234
     17 C           6.5320   -1.2698    0.0000 C.ar    1  UNL1        0.1419
     18 C           7.4260    0.2648    0.0000 C.ar    1  UNL1        0.2003
     19 C          12.7243    1.2887    0.0000 C.3     1  UNL1        0.1235
     20 C           8.3321   -0.2490    0.0000 C.ar    1  UNL1        0.0678
     21 C           9.1962    0.2543    0.0000 C.ar    1  UNL1        0.0312
     22 C          10.9282    0.2610    0.0000 C.ar    1  UNL1        0.0587
     23 C          10.9243    1.2610    0.0000 C.ar    1  UNL1        0.1324
     24 C          10.0641   -0.2423    0.0000 C.ar    1  UNL1        0.1386
     25 C           8.3321   -1.2906    0.0000 C.ar    1  UNL1        0.1040
     26 C          12.7283    0.2471    0.0000 C.2     1  UNL1       -0.0408
     27 C          11.8242   -0.2702    0.0000 C.2     1  UNL1       -0.0478
     28 C           9.1923    1.2543    0.0000 C.ar    1  UNL1       -0.0468
     29 C          13.7242    1.2965    0.0000 C.3     1  UNL1       -0.0215
     30 C          13.2176    2.1586    0.0000 C.3     1  UNL1       -0.0215
     31 C          10.0564    1.7576    0.0000 C.ar    1  UNL1       -0.0185
     32 C          10.9359   -1.7390    0.0000 C.3     1  UNL1        0.0788
     33 H           3.0036    0.3710    0.0000 H       1  UNL1        0.0636
     34 H           4.3107    0.7346    0.0000 H       1  UNL1        0.0341
     35 H           3.5124    0.7438    0.0000 H       1  UNL1        0.0341
     36 H           1.9652   -1.8507    0.0000 H       1  UNL1        0.0269
     37 H           1.9976   -0.6745    0.0000 H       1  UNL1        0.0269
     38 H           1.3800   -1.2969    0.0000 H       1  UNL1        0.0269
     39 H           2.0024   -1.9145    0.0000 H       1  UNL1        0.0269
     40 H           2.1954   -2.6967    0.0000 H       1  UNL1        0.0269
     41 H           3.0415   -2.4665    0.0000 H       1  UNL1        0.0269
     42 H           5.6660    0.8502    0.0000 H       1  UNL1        0.0630
     43 H           5.6660   -2.3898    0.0000 H       1  UNL1        0.0691
     44 H           2.1383    0.8743    0.0000 H       1  UNL1        0.2100
     45 H           8.8678   -1.6027    0.0000 H       1  UNL1        0.1037
     46 H          13.2652   -0.0629    0.0000 H       1  UNL1        0.0611
     47 H          11.8194   -0.8902    0.0000 H       1  UNL1        0.0624
     48 H           8.6542    1.5622    0.0000 H       1  UNL1        0.0626
     49 H          13.7569    1.8527    0.0000 H       1  UNL1        0.0271
     50 H          13.7290    0.6765    0.0000 H       1  UNL1        0.0271
     51 H          14.3442    1.3012    0.0000 H       1  UNL1        0.0271
     52 H          13.7194    1.9164    0.0000 H       1  UNL1        0.0271
     53 H          13.5234    2.6979    0.0000 H       1  UNL1        0.0271
     54 H          12.6783    2.4644    0.0000 H       1  UNL1        0.0271
     55 H          10.0540    2.3776    0.0000 H       1  UNL1        0.0654
     56 H          10.6280   -2.2771    0.0000 H       1  UNL1        0.0660
     57 H          11.4740   -2.0469    0.0000 H       1  UNL1        0.0660
     58 H          11.2438   -1.2009    0.0000 H       1  UNL1        0.0660
@<TRIPOS>BOND
     1     1     7    1
     2     1    11    1
     3     2     8    1
     4     2    44    1
     5     3    17   ar
     6     3    25   ar
     7     4    19    1
     8     4    23    1
     9     5    18    2
    10     6    24    1
    11     6    32    1
    12     7     8    1
    13     7    12    1
    14     7    13    1
    15     8     9    1
    16     8    33    1
    17     9    10    1
    18     9    34    1
    19     9    35    1
    20    10    11   ar
    21    10    14   ar
    22    11    16   ar
    23    12    37    1
    24    12    38    1
    25    12    39    1
    26    13    36    1
    27    13    40    1
    28    13    41    1
    29    14    15   ar
    30    14    42    1
    31    15    17   ar
    32    15    18   ar
    33    16    17   ar
    34    16    43    1
    35    18    20   ar
    36    19    26    1
    37    19    29    1
    38    19    30    1
    39    20    21    1
    40    20    25   ar
    41    21    24   ar
    42    21    28   ar
    43    22    23   ar
    44    22    24   ar
    45    22    27    1
    46    23    31   ar
    47    25    45    1
    48    26    27    2
    49    26    46    1
    50    27    47    1
    51    28    31   ar
    52    28    48    1
    53    29    50    1
    54    29    51    1
    55    29    52    1
    56    30    49    1
    57    30    53    1
    58    30    54    1
    59    31    55    1
    60    32    56    1
    61    32    57    1
    62    32    58    1
