@<TRIPOS>MOLECULE
IMPHY002191
 52 54 0 0 0
SMALL
GASTEIGER

@<TRIPOS>ATOM
      1 O           8.3212    3.5583    0.0000 O.3     1  UNL1       -0.3902
      2 O          10.3332    0.0952    0.0000 O.2     1  UNL1       -0.4919
      3 O           8.5296   -1.1213    0.0000 O.2     1  UNL1       -0.2884
      4 O           5.9445   -3.2292    0.0000 O.3     1  UNL1       -0.4914
      5 O           3.9445   -3.2292    0.0000 O.3     1  UNL1       -0.4915
      6 C           7.0846    1.7096    0.0000 C.3     1  UNL1        0.0257
      7 C           5.6857    1.2008    0.0000 C.3     1  UNL1       -0.0244
      8 C           5.9445    0.2349    0.0000 C.3     1  UNL1        0.0001
      9 C           7.3434    0.7437    0.0000 C.3     1  UNL1        0.0589
     10 C           7.8212    2.6923    0.0000 C.3     1  UNL1        0.0754
     11 C           6.8258    2.6756    0.0000 C.3     1  UNL1       -0.0231
     12 C           9.1179    1.3985    0.0000 C.2     1  UNL1       -0.0296
     13 C           8.5645   -0.1219    0.0000 C.2     1  UNL1        0.2031
     14 C           4.8197    1.7008    0.0000 C.3     1  UNL1       -0.0610
     15 C           5.4445   -0.6311    0.0000 C.ar    1  UNL1       -0.0395
     16 C           9.3935    0.4373    0.0000 C.2     1  UNL1        0.1594
     17 C           5.8599    2.9344    0.0000 C.2     1  UNL1       -0.0902
     18 C           5.9445   -1.4972    0.0000 C.ar    1  UNL1       -0.0128
     19 C           4.4445   -0.6311    0.0000 C.ar    1  UNL1       -0.0546
     20 C           5.4445   -2.3632    0.0000 C.ar    1  UNL1        0.1617
     21 C           3.9445   -1.4972    0.0000 C.ar    1  UNL1       -0.0160
     22 C           5.6011    3.9003    0.0000 C.2     1  UNL1       -0.1026
     23 C           4.4445   -2.3632    0.0000 C.ar    1  UNL1        0.1615
     24 C          11.0992    0.7380    0.0000 C.3     1  UNL1        0.0789
     25 C           5.4445   -4.0952    0.0000 C.3     1  UNL1        0.0790
     26 C           2.9445   -3.2292    0.0000 C.3     1  UNL1        0.0790
     27 H           5.1938    0.8234    0.0000 H       1  UNL1        0.0313
     28 H           6.3430   -0.2401    0.0000 H       1  UNL1        0.0359
     29 H           7.5634   -0.0773    0.0000 H       1  UNL1        0.0414
     30 H           7.3038    3.0338    0.0000 H       1  UNL1        0.0609
     31 H           6.8798    3.2932    0.0000 H       1  UNL1        0.0317
     32 H           7.4434    2.7296    0.0000 H       1  UNL1        0.0317
     33 H           9.5275    1.8639    0.0000 H       1  UNL1        0.0616
     34 H           4.5097    1.1639    0.0000 H       1  UNL1        0.0233
     35 H           4.2827    2.0108    0.0000 H       1  UNL1        0.0233
     36 H           5.1297    2.2378    0.0000 H       1  UNL1        0.0233
     37 H           8.0112    4.0952    0.0000 H       1  UNL1        0.2098
     38 H           5.4215    2.4960    0.0000 H       1  UNL1        0.0567
     39 H           6.5645   -1.4972    0.0000 H       1  UNL1        0.0658
     40 H           4.1345   -0.0942    0.0000 H       1  UNL1        0.0622
     41 H           3.3245   -1.4972    0.0000 H       1  UNL1        0.0655
     42 H           5.0022    4.0608    0.0000 H       1  UNL1        0.0532
     43 H           6.0395    4.3387    0.0000 H       1  UNL1        0.0532
     44 H          10.7007    1.2130    0.0000 H       1  UNL1        0.0660
     45 H          11.5742    1.1366    0.0000 H       1  UNL1        0.0660
     46 H          11.4978    0.2631    0.0000 H       1  UNL1        0.0660
     47 H           5.9814   -4.4052    0.0000 H       1  UNL1        0.0660
     48 H           5.1345   -4.6322    0.0000 H       1  UNL1        0.0660
     49 H           4.9076   -3.7852    0.0000 H       1  UNL1        0.0660
     50 H           2.9445   -3.8492    0.0000 H       1  UNL1        0.0660
     51 H           2.3245   -3.2292    0.0000 H       1  UNL1        0.0660
     52 H           2.9445   -2.6092    0.0000 H       1  UNL1        0.0660
@<TRIPOS>BOND
     1    10     1    1
     2     1    37    1
     3     2    16    1
     4     2    24    1
     5     3    13    2
     6     4    20    1
     7     4    25    1
     8     5    23    1
     9     5    26    1
    10     6     7    1
    11     6    10    1
    12     6    11    1
    13     6    12    1
    14     7     8    1
    15     7    14    1
    16     7    27    1
    17     8     9    1
    18     8    15    1
    19     8    28    1
    20     9    10    1
    21     9    13    1
    22     9    29    1
    23    10    30    1
    24    11    17    1
    25    11    31    1
    26    11    32    1
    27    12    16    2
    28    12    33    1
    29    13    16    1
    30    14    34    1
    31    14    35    1
    32    14    36    1
    33    15    18   ar
    34    15    19   ar
    35    17    22    2
    36    17    38    1
    37    18    20   ar
    38    18    39    1
    39    19    21   ar
    40    19    40    1
    41    20    23   ar
    42    21    23   ar
    43    21    41    1
    44    22    42    1
    45    22    43    1
    46    24    44    1
    47    24    45    1
    48    24    46    1
    49    25    47    1
    50    25    48    1
    51    25    49    1
    52    26    50    1
    53    26    51    1
    54    26    52    1
