@<TRIPOS>MOLECULE
IMPHY002955
 17 17 0 0 0
SMALL
GASTEIGER

@<TRIPOS>ATOM
      1 O           2.8660   -2.3450    0.0000 O.3     1  UNL1       -0.5068
      2 N           4.5981    2.6550    0.0000 N.1     1  UNL1       -0.1962
      3 C           2.8660    0.6550    0.0000 C.ar    1  UNL1       -0.0334
      4 C           2.0000    0.1550    0.0000 C.ar    1  UNL1       -0.0542
      5 C           3.7320    0.1550    0.0000 C.ar    1  UNL1       -0.0542
      6 C           2.8660    1.6550    0.0000 C.3     1  UNL1        0.0598
      7 C           2.0000   -0.8450    0.0000 C.ar    1  UNL1       -0.0199
      8 C           3.7320   -0.8450    0.0000 C.ar    1  UNL1       -0.0199
      9 C           2.8660   -1.3450    0.0000 C.ar    1  UNL1        0.1169
     10 C           3.7320    2.1550    0.0000 C.1     1  UNL1        0.0672
     11 H           1.4631    0.4650    0.0000 H       1  UNL1        0.0622
     12 H           4.2690    0.4650    0.0000 H       1  UNL1        0.0622
     13 H           2.6540    2.2376    0.0000 H       1  UNL1        0.0467
     14 H           2.2554    1.5473    0.0000 H       1  UNL1        0.0467
     15 H           1.4631   -1.1550    0.0000 H       1  UNL1        0.0654
     16 H           4.2690   -1.1550    0.0000 H       1  UNL1        0.0654
     17 H           2.3291   -2.6550    0.0000 H       1  UNL1        0.2921
@<TRIPOS>BOND
     1     1     9    1
     2     1    17    1
     3     2    10    3
     4     3     4   ar
     5     3     5   ar
     6     3     6    1
     7     4     7   ar
     8     4    11    1
     9     5     8   ar
    10     5    12    1
    11     6    10    1
    12     6    13    1
    13     6    14    1
    14     7     9   ar
    15     7    15    1
    16     8     9   ar
    17     8    16    1
