@<TRIPOS>MOLECULE
IMPHY003812
 71 75 0 0 0
SMALL
GASTEIGER

@<TRIPOS>ATOM
      1 O           5.1350    1.2500    0.0000 O.3     1  UNL1       -0.3609
      2 O           8.5991   -1.7500    0.0000 O.3     1  UNL1       -0.3635
      3 O           6.8671    3.2500    0.0000 O.3     1  UNL1       -0.3862
      4 O           6.0010   -1.2500    0.0000 O.3     1  UNL1       -0.3862
      5 O           5.1350    4.2500    0.0000 O.3     1  UNL1       -0.3865
      6 O           6.0010   -3.2500    0.0000 O.3     1  UNL1       -0.3865
      7 O           3.4030    3.2500    0.0000 O.3     1  UNL1       -0.3865
      8 O           7.7331   -4.2500    0.0000 O.3     1  UNL1       -0.3866
      9 O           9.4931   -0.2847    0.0000 O.2     1  UNL1       -0.4540
     10 O           6.0010   -0.2500    0.0000 O.3     1  UNL1       -0.5058
     11 O           7.7331    2.7500    0.0000 O.3     1  UNL1       -0.5054
     12 O           2.5369    1.7500    0.0000 O.3     1  UNL1       -0.3924
     13 O           9.4815    2.7846    0.0000 O.2     1  UNL1       -0.2869
     14 O          13.8555   -1.7842    0.0000 O.3     1  UNL1       -0.5068
     15 C           6.0010    1.7500    0.0000 C.3     1  UNL1        0.1193
     16 C           7.7331   -1.2500    0.0000 C.3     1  UNL1        0.1192
     17 C           6.0010    2.7500    0.0000 C.3     1  UNL1        0.1139
     18 C           6.8671   -1.7500    0.0000 C.3     1  UNL1        0.1139
     19 C           5.1350    3.2500    0.0000 C.3     1  UNL1        0.1121
     20 C           6.8671   -2.7500    0.0000 C.3     1  UNL1        0.1120
     21 C           4.2690    2.7500    0.0000 C.3     1  UNL1        0.1117
     22 C           7.7331   -3.2500    0.0000 C.3     1  UNL1        0.1093
     23 C           4.2690    1.7500    0.0000 C.3     1  UNL1        0.1108
     24 C           7.7331   -0.2500    0.0000 C.ar    1  UNL1        0.0686
     25 C           8.5991   -2.7500    0.0000 C.3     1  UNL1        0.0851
     26 C           6.8671    1.2500    0.0000 C.ar    1  UNL1        0.0677
     27 C           6.8671    0.2500    0.0000 C.ar    1  UNL1        0.1353
     28 C           8.5991    0.2500    0.0000 C.ar    1  UNL1        0.1520
     29 C           7.7331    1.7500    0.0000 C.ar    1  UNL1        0.1404
     30 C           8.5991    1.2500    0.0000 C.ar    1  UNL1        0.1062
     31 C           3.4030    1.2500    0.0000 C.3     1  UNL1        0.0729
     32 C           9.4651   -3.2500    0.0000 C.3     1  UNL1       -0.0361
     33 C           9.4931    1.7847    0.0000 C.ar    1  UNL1        0.1966
     34 C          10.3991    0.2292    0.0000 C.ar    1  UNL1        0.1392
     35 C          10.3991    1.2708    0.0000 C.ar    1  UNL1        0.0288
     36 C          11.2632   -0.2742    0.0000 C.ar    1  UNL1        0.0176
     37 C          12.1312    0.2225    0.0000 C.ar    1  UNL1       -0.0476
     38 C          11.2594   -1.2741    0.0000 C.ar    1  UNL1       -0.0476
     39 C          12.9953   -0.2808    0.0000 C.ar    1  UNL1       -0.0195
     40 C          12.1235   -1.7775    0.0000 C.ar    1  UNL1       -0.0195
     41 C          12.9914   -1.2808    0.0000 C.ar    1  UNL1        0.1169
     42 H           6.0010    0.9000    0.0000 H       1  UNL1        0.0676
     43 H           8.4692   -0.8250    0.0000 H       1  UNL1        0.0676
     44 H           6.5380    2.4400    0.0000 H       1  UNL1        0.0649
     45 H           6.8671   -1.1300    0.0000 H       1  UNL1        0.0649
     46 H           5.6720    3.5600    0.0000 H       1  UNL1        0.0647
     47 H           6.3301   -2.4400    0.0000 H       1  UNL1        0.0647
     48 H           4.2690    3.3700    0.0000 H       1  UNL1        0.0647
     49 H           8.2700   -3.5600    0.0000 H       1  UNL1        0.0646
     50 H           4.2690    1.1300    0.0000 H       1  UNL1        0.0646
     51 H           9.1360   -2.4400    0.0000 H       1  UNL1        0.0620
     52 H           3.0044    0.7751    0.0000 H       1  UNL1        0.0584
     53 H           3.8015    0.7751    0.0000 H       1  UNL1        0.0584
     54 H           9.1551   -3.7869    0.0000 H       1  UNL1        0.0255
     55 H          10.0021   -3.5600    0.0000 H       1  UNL1        0.0255
     56 H           9.7751   -2.7131    0.0000 H       1  UNL1        0.0255
     57 H           6.8671    3.8700    0.0000 H       1  UNL1        0.2100
     58 H           5.4641   -1.5600    0.0000 H       1  UNL1        0.2100
     59 H           4.5981    4.5600    0.0000 H       1  UNL1        0.2100
     60 H           6.0010   -3.8700    0.0000 H       1  UNL1        0.2100
     61 H           3.4030    3.8700    0.0000 H       1  UNL1        0.2100
     62 H           8.2700   -4.5600    0.0000 H       1  UNL1        0.2100
     63 H           5.4641    0.0600    0.0000 H       1  UNL1        0.2922
     64 H           8.2700    3.0600    0.0000 H       1  UNL1        0.2922
     65 H          10.9349    1.5829    0.0000 H       1  UNL1        0.0693
     66 H           2.0000    1.4400    0.0000 H       1  UNL1        0.2095
     67 H          12.1336    0.8425    0.0000 H       1  UNL1        0.0626
     68 H          10.7212   -1.5821    0.0000 H       1  UNL1        0.0626
     69 H          13.5334    0.0271    0.0000 H       1  UNL1        0.0654
     70 H          12.1211   -2.3975    0.0000 H       1  UNL1        0.0654
     71 H          14.3936   -1.4762    0.0000 H       1  UNL1        0.2921
@<TRIPOS>BOND
     1     1    15    1
     2     1    23    1
     3     2    16    1
     4     2    25    1
     5    17     3    1
     6     3    57    1
     7    18     4    1
     8     4    58    1
     9    19     5    1
    10     5    59    1
    11    20     6    1
    12     6    60    1
    13    21     7    1
    14     7    61    1
    15    22     8    1
    16     8    62    1
    17     9    28   ar
    18     9    34   ar
    19    10    27    1
    20    10    63    1
    21    11    29    1
    22    11    64    1
    23    12    31    1
    24    12    66    1
    25    13    33    2
    26    14    41    1
    27    14    71    1
    28    15    17    1
    29    15    26    1
    30    15    42    1
    31    16    18    1
    32    16    24    1
    33    16    43    1
    34    17    19    1
    35    17    44    1
    36    18    20    1
    37    18    45    1
    38    19    21    1
    39    19    46    1
    40    20    22    1
    41    20    47    1
    42    21    23    1
    43    21    48    1
    44    22    25    1
    45    22    49    1
    46    23    31    1
    47    23    50    1
    48    24    27   ar
    49    24    28   ar
    50    25    32    1
    51    25    51    1
    52    26    27   ar
    53    26    29   ar
    54    28    30   ar
    55    29    30   ar
    56    30    33   ar
    57    31    52    1
    58    31    53    1
    59    32    54    1
    60    32    55    1
    61    32    56    1
    62    33    35   ar
    63    34    35   ar
    64    34    36    1
    65    35    65    1
    66    36    37   ar
    67    36    38   ar
    68    37    39   ar
    69    37    67    1
    70    38    40   ar
    71    38    68    1
    72    39    41   ar
    73    39    69    1
    74    40    41   ar
    75    40    70    1
