@<TRIPOS>MOLECULE
IMPHY002118
 37 42 0 0 0
SMALL
GASTEIGER

@<TRIPOS>ATOM
      1 O           5.4450   -1.8908    0.0000 O.3     1  UNL1       -0.4518
      2 O           3.9996   -2.7402    0.0000 O.3     1  UNL1       -0.4489
      3 O           8.3075    0.0014    0.0000 O.3     1  UNL1       -0.4526
      4 O           8.3075    1.6778    0.0000 O.3     1  UNL1       -0.4526
      5 O           2.0038   -1.7055    0.0000 O.3     1  UNL1       -0.4907
      6 O           4.6559    2.8396    0.0000 O.2     1  UNL1       -0.2850
      7 N           2.9316    1.8365    0.0000 N.ar    1  UNL1       -0.2511
      8 C           4.6559   -0.1604    0.0000 C.ar    1  UNL1        0.0385
      9 C           3.7898    0.3396    0.0000 C.ar    1  UNL1        0.0262
     10 C           5.5219    0.3396    0.0000 C.ar    1  UNL1        0.0009
     11 C           4.6719   -1.2019    0.0000 C.ar    1  UNL1        0.1782
     12 C           2.8798   -0.1672    0.0000 C.ar    1  UNL1        0.0318
     13 C           5.5219    1.3396    0.0000 C.ar    1  UNL1        0.0353
     14 C           3.7898    1.3396    0.0000 C.ar    1  UNL1        0.1194
     15 C           3.7739   -1.7296    0.0000 C.ar    1  UNL1        0.2088
     16 C           2.8718   -1.2088    0.0000 C.ar    1  UNL1        0.1731
     17 C           4.6559    1.8396    0.0000 C.2     1  UNL1        0.2125
     18 C           6.4158   -0.1950    0.0000 C.ar    1  UNL1       -0.0076
     19 C           6.4158    1.8743    0.0000 C.ar    1  UNL1       -0.0047
     20 C           7.3219    0.3188    0.0000 C.ar    1  UNL1        0.1668
     21 C           7.3219    1.3604    0.0000 C.ar    1  UNL1        0.1669
     22 C           2.0405    0.3610    0.0000 C.ar    1  UNL1       -0.0322
     23 C           5.0303   -2.8396    0.0000 C.3     1  UNL1        0.2334
     24 C           2.0661    1.3524    0.0000 C.ar    1  UNL1        0.0291
     25 C           8.9154    0.8396    0.0000 C.3     1  UNL1        0.2332
     26 C           2.0000   -2.7055    0.0000 C.3     1  UNL1        0.0790
     27 H           6.4087   -0.8150    0.0000 H       1  UNL1        0.0662
     28 H           6.4087    2.4942    0.0000 H       1  UNL1        0.0663
     29 H           1.4939    0.0683    0.0000 H       1  UNL1        0.0640
     30 H           4.9062   -3.4471    0.0000 H       1  UNL1        0.1166
     31 H           5.6213   -3.0268    0.0000 H       1  UNL1        0.1166
     32 H           1.5354    1.6729    0.0000 H       1  UNL1        0.0830
     33 H           9.3763    0.4249    0.0000 H       1  UNL1        0.1166
     34 H           9.3763    1.2543    0.0000 H       1  UNL1        0.1166
     35 H           1.3800   -2.7031    0.0000 H       1  UNL1        0.0660
     36 H           1.9976   -3.3255    0.0000 H       1  UNL1        0.0660
     37 H           2.6200   -2.7079    0.0000 H       1  UNL1        0.0660
@<TRIPOS>BOND
     1     1    11    1
     2     1    23    1
     3     2    15    1
     4     2    23    1
     5     3    20    1
     6     3    25    1
     7     4    21    1
     8     4    25    1
     9     5    16    1
    10     5    26    1
    11     6    17    2
    12     7    14   ar
    13     7    24   ar
    14     8     9   ar
    15     8    10    1
    16     8    11   ar
    17     9    12   ar
    18     9    14   ar
    19    10    13   ar
    20    10    18   ar
    21    11    15   ar
    22    12    16   ar
    23    12    22   ar
    24    13    17    1
    25    13    19   ar
    26    14    17    1
    27    15    16   ar
    28    18    20   ar
    29    18    27    1
    30    19    21   ar
    31    19    28    1
    32    20    21   ar
    33    22    24   ar
    34    22    29    1
    35    23    30    1
    36    23    31    1
    37    24    32    1
    38    25    33    1
    39    25    34    1
    40    26    35    1
    41    26    36    1
    42    26    37    1
