@<TRIPOS>MOLECULE
IMPHY017634
 39 40 0 0 0
SMALL
GASTEIGER

@<TRIPOS>ATOM
      1 C           3.7320    0.7500    0.0000 C.3     1  UNL1       -0.0167
      2 C           2.8660    1.2500    0.0000 C.3     1  UNL1       -0.0370
      3 C           3.7320   -0.2500    0.0000 C.2     1  UNL1       -0.0625
      4 C           4.6260    1.2847    0.0000 C.3     1  UNL1       -0.0460
      5 C           5.5321   -0.2708    0.0000 C.3     1  UNL1       -0.0402
      6 C           4.6260   -0.7847    0.0000 C.3     1  UNL1       -0.0283
      7 C           5.5321    0.7708    0.0000 C.3     1  UNL1       -0.0496
      8 C           2.0000    0.7500    0.0000 C.3     1  UNL1       -0.0459
      9 C           2.8660   -0.7500    0.0000 C.2     1  UNL1       -0.0455
     10 C           2.0000   -0.2500    0.0000 C.3     1  UNL1       -0.0272
     11 C           2.8660    2.2500    0.0000 C.3     1  UNL1       -0.0619
     12 C           6.3961   -0.7742    0.0000 C.3     1  UNL1       -0.0621
     13 C           2.8660   -1.7500    0.0000 C.2     1  UNL1       -0.0544
     14 C           2.0000   -2.2500    0.0000 C.3     1  UNL1       -0.0400
     15 C           3.7320   -2.2500    0.0000 C.2     1  UNL1       -0.0955
     16 H           4.2714    0.4441    0.0000 H       1  UNL1        0.0348
     17 H           3.4030    1.5600    0.0000 H       1  UNL1        0.0304
     18 H           5.0196    1.7637    0.0000 H       1  UNL1        0.0271
     19 H           4.2214    1.7544    0.0000 H       1  UNL1        0.0271
     20 H           5.5285   -0.8908    0.0000 H       1  UNL1        0.0301
     21 H           4.2214   -1.2544    0.0000 H       1  UNL1        0.0313
     22 H           5.0196   -1.2637    0.0000 H       1  UNL1        0.0313
     23 H           6.1429    0.6647    0.0000 H       1  UNL1        0.0268
     24 H           5.7411    1.3545    0.0000 H       1  UNL1        0.0268
     25 H           1.7880    1.3326    0.0000 H       1  UNL1        0.0271
     26 H           1.3894    0.6423    0.0000 H       1  UNL1        0.0271
     27 H           1.3894   -0.1423    0.0000 H       1  UNL1        0.0313
     28 H           1.7880   -0.8326    0.0000 H       1  UNL1        0.0313
     29 H           3.4860    2.2500    0.0000 H       1  UNL1        0.0233
     30 H           2.8660    2.8700    0.0000 H       1  UNL1        0.0233
     31 H           2.2460    2.2500    0.0000 H       1  UNL1        0.0233
     32 H           6.0841   -1.3099    0.0000 H       1  UNL1        0.0233
     33 H           6.9319   -1.0862    0.0000 H       1  UNL1        0.0233
     34 H           6.7082   -0.2384    0.0000 H       1  UNL1        0.0233
     35 H           1.6900   -1.7131    0.0000 H       1  UNL1        0.0277
     36 H           1.4631   -2.5600    0.0000 H       1  UNL1        0.0277
     37 H           2.3100   -2.7869    0.0000 H       1  UNL1        0.0277
     38 H           3.7320   -2.8700    0.0000 H       1  UNL1        0.0537
     39 H           4.2690   -1.9400    0.0000 H       1  UNL1        0.0537
@<TRIPOS>BOND
     1     1     2    1
     2     1     3    1
     3     1     4    1
     4     1    16    1
     5     2     8    1
     6     2    11    1
     7     2    17    1
     8     3     6    1
     9     3     9    2
    10     4     7    1
    11     4    18    1
    12     4    19    1
    13     5     6    1
    14     5     7    1
    15     5    12    1
    16     5    20    1
    17     6    21    1
    18     6    22    1
    19     7    23    1
    20     7    24    1
    21     8    10    1
    22     8    25    1
    23     8    26    1
    24     9    10    1
    25     9    13    1
    26    10    27    1
    27    10    28    1
    28    11    29    1
    29    11    30    1
    30    11    31    1
    31    12    32    1
    32    12    33    1
    33    12    34    1
    34    13    14    1
    35    13    15    2
    36    14    35    1
    37    14    36    1
    38    14    37    1
    39    15    38    1
    40    15    39    1
