@<TRIPOS>MOLECULE
IMPHY015876
 28 28 0 0 0
SMALL
GASTEIGER

@<TRIPOS>ATOM
      1 O           3.5000   -1.3660    0.0000 O.3     1  UNL1       -0.3574
      2 O           2.0000    0.5000    0.0000 O.2     1  UNL1       -0.2982
      3 C           4.3660   -0.8660    0.0000 C.3     1  UNL1        0.1006
      4 C           3.5000   -0.3660    0.0000 C.3     1  UNL1        0.1427
      5 C           4.8660   -0.0000    0.0000 C.3     1  UNL1       -0.0177
      6 C           4.8660   -1.7320    0.0000 C.3     1  UNL1       -0.0329
      7 C           5.8660   -0.0000    0.0000 C.3     1  UNL1       -0.0318
      8 C           3.0000    0.5000    0.0000 C.2     1  UNL1        0.1517
      9 C           6.3660    0.8660    0.0000 C.2     1  UNL1       -0.0852
     10 C           7.3660    0.8660    0.0000 C.2     1  UNL1       -0.0796
     11 C           7.8660    1.7320    0.0000 C.3     1  UNL1       -0.0440
     12 C           7.8660    0.0000    0.0000 C.3     1  UNL1       -0.0440
     13 H           2.9011   -0.5265    0.0000 H       1  UNL1        0.0702
     14 H           4.9737    0.6106    0.0000 H       1  UNL1        0.0297
     15 H           4.2834    0.2121    0.0000 H       1  UNL1        0.0297
     16 H           4.3291   -2.0420    0.0000 H       1  UNL1        0.0258
     17 H           5.1760   -2.2690    0.0000 H       1  UNL1        0.0258
     18 H           5.4030   -1.4220    0.0000 H       1  UNL1        0.0258
     19 H           5.7584   -0.6106    0.0000 H       1  UNL1        0.0308
     20 H           6.4486   -0.2121    0.0000 H       1  UNL1        0.0308
     21 H           3.3100    1.0369    0.0000 H       1  UNL1        0.1055
     22 H           6.0560    1.4030    0.0000 H       1  UNL1        0.0571
     23 H           8.4030    1.4220    0.0000 H       1  UNL1        0.0274
     24 H           8.1760    2.2690    0.0000 H       1  UNL1        0.0274
     25 H           7.3291    2.0420    0.0000 H       1  UNL1        0.0274
     26 H           7.3291   -0.3100    0.0000 H       1  UNL1        0.0274
     27 H           8.1760   -0.5369    0.0000 H       1  UNL1        0.0274
     28 H           8.4030    0.3100    0.0000 H       1  UNL1        0.0274
@<TRIPOS>BOND
     1     1     3    1
     2     1     4    1
     3     2     8    2
     4     3     4    1
     5     3     5    1
     6     3     6    1
     7     4     8    1
     8     4    13    1
     9     5     7    1
    10     5    14    1
    11     5    15    1
    12     6    16    1
    13     6    17    1
    14     6    18    1
    15     7     9    1
    16     7    19    1
    17     7    20    1
    18     8    21    1
    19     9    10    2
    20     9    22    1
    21    10    11    1
    22    10    12    1
    23    11    23    1
    24    11    24    1
    25    11    25    1
    26    12    26    1
    27    12    27    1
    28    12    28    1
