@<TRIPOS>MOLECULE
IMPHY006422
 37 37 0 0 0
SMALL
GASTEIGER

@<TRIPOS>ATOM
      1 O           2.8090   -2.5829    0.0000 O.2     1  UNL1       -0.4708
      2 O           8.4627    0.1559    0.0000 O.2     1  UNL1       -0.2923
      3 C           4.8913   -0.3396    0.0000 C.3     1  UNL1       -0.0304
      4 C           3.8968   -0.2350    0.0000 C.3     1  UNL1       -0.0213
      5 C           6.4736    0.3649    0.0000 C.2     1  UNL1       -0.0691
      6 C           5.4791    0.4694    0.0000 C.2     1  UNL1       -0.0843
      7 C           7.0614    1.1739    0.0000 C.3     1  UNL1        0.0307
      8 C           3.3090   -1.0441    0.0000 C.ar    1  UNL1       -0.0094
      9 C           6.8804   -0.5486    0.0000 C.3     1  UNL1       -0.0434
     10 C           8.0559    1.0694    0.0000 C.2     1  UNL1        0.1600
     11 C           2.3090   -1.0441    0.0000 C.ar    1  UNL1       -0.0207
     12 C           3.6180   -1.9951    0.0000 C.ar    1  UNL1        0.0948
     13 C           8.6437    1.8784    0.0000 C.2     1  UNL1       -0.0202
     14 C           9.6382    1.7739    0.0000 C.2     1  UNL1       -0.0724
     15 C           2.0000   -1.9951    0.0000 C.ar    1  UNL1        0.0919
     16 C          10.2260    2.5829    0.0000 C.3     1  UNL1       -0.0437
     17 C          10.0450    0.8603    0.0000 C.3     1  UNL1       -0.0437
     18 H           4.7204   -0.9356    0.0000 H       1  UNL1        0.0311
     19 H           5.4486   -0.6114    0.0000 H       1  UNL1        0.0311
     20 H           4.0677    0.3609    0.0000 H       1  UNL1        0.0317
     21 H           3.3396    0.0367    0.0000 H       1  UNL1        0.0317
     22 H           5.2269    1.0358    0.0000 H       1  UNL1        0.0572
     23 H           7.2323    1.7699    0.0000 H       1  UNL1        0.0390
     24 H           6.5042    1.4457    0.0000 H       1  UNL1        0.0390
     25 H           6.3140   -0.8008    0.0000 H       1  UNL1        0.0274
     26 H           7.1325   -1.1150    0.0000 H       1  UNL1        0.0274
     27 H           7.4468   -0.2965    0.0000 H       1  UNL1        0.0274
     28 H           1.9446   -0.5425    0.0000 H       1  UNL1        0.0652
     29 H           4.2077   -2.1867    0.0000 H       1  UNL1        0.1032
     30 H           8.3916    2.4448    0.0000 H       1  UNL1        0.0652
     31 H           1.4103   -2.1867    0.0000 H       1  UNL1        0.1029
     32 H           9.4786    0.6082    0.0000 H       1  UNL1        0.0274
     33 H          10.2972    0.2939    0.0000 H       1  UNL1        0.0274
     34 H          10.6114    1.1125    0.0000 H       1  UNL1        0.0274
     35 H          10.7276    2.2185    0.0000 H       1  UNL1        0.0274
     36 H          10.5905    3.0845    0.0000 H       1  UNL1        0.0274
     37 H           9.7244    2.9473    0.0000 H       1  UNL1        0.0274
@<TRIPOS>BOND
     1     1    12   ar
     2     1    15   ar
     3     2    10    2
     4     3     4    1
     5     3     6    1
     6     3    18    1
     7     3    19    1
     8     4     8    1
     9     4    20    1
    10     4    21    1
    11     5     6    2
    12     5     7    1
    13     5     9    1
    14     6    22    1
    15     7    10    1
    16     7    23    1
    17     7    24    1
    18     8    11   ar
    19     8    12   ar
    20     9    25    1
    21     9    26    1
    22     9    27    1
    23    10    13    1
    24    11    15   ar
    25    11    28    1
    26    12    29    1
    27    13    14    2
    28    13    30    1
    29    14    16    1
    30    14    17    1
    31    15    31    1
    32    16    35    1
    33    16    36    1
    34    16    37    1
    35    17    32    1
    36    17    33    1
    37    17    34    1
