@<TRIPOS>MOLECULE
IMPHY016428
 23 22 0 0 0
SMALL
GASTEIGER

@<TRIPOS>ATOM
      1 O           5.4641    1.2500    0.0000 O.2     1  UNL1       -0.2924
      2 C           4.5981   -0.2500    0.0000 C.2     1  UNL1       -0.0120
      3 C           6.3301   -0.2500    0.0000 C.3     1  UNL1        0.0073
      4 C           5.4641    0.2500    0.0000 C.2     1  UNL1        0.1584
      5 C           2.8660   -0.2500    0.0000 C.3     1  UNL1       -0.0370
      6 C           3.7320    0.2500    0.0000 C.2     1  UNL1       -0.0781
      7 C           4.5981   -1.2500    0.0000 C.3     1  UNL1       -0.0367
      8 C           7.1962    0.2500    0.0000 C.3     1  UNL1       -0.0582
      9 C           2.0000    0.2500    0.0000 C.3     1  UNL1       -0.0618
     10 H           5.9316   -0.7249    0.0000 H       1  UNL1        0.0342
     11 H           6.7287   -0.7249    0.0000 H       1  UNL1        0.0342
     12 H           2.4675   -0.7249    0.0000 H       1  UNL1        0.0305
     13 H           3.2646   -0.7249    0.0000 H       1  UNL1        0.0305
     14 H           3.7320    0.8700    0.0000 H       1  UNL1        0.0576
     15 H           3.9781   -1.2500    0.0000 H       1  UNL1        0.0278
     16 H           4.5981   -1.8700    0.0000 H       1  UNL1        0.0278
     17 H           5.2181   -1.2500    0.0000 H       1  UNL1        0.0278
     18 H           7.5062   -0.2869    0.0000 H       1  UNL1        0.0234
     19 H           7.7331    0.5600    0.0000 H       1  UNL1        0.0234
     20 H           6.8862    0.7869    0.0000 H       1  UNL1        0.0234
     21 H           2.3100    0.7869    0.0000 H       1  UNL1        0.0233
     22 H           1.4631    0.5600    0.0000 H       1  UNL1        0.0233
     23 H           1.6900   -0.2869    0.0000 H       1  UNL1        0.0233
@<TRIPOS>BOND
     1     1     4    2
     2     2     4    1
     3     2     6    2
     4     2     7    1
     5     3     4    1
     6     3     8    1
     7     3    10    1
     8     3    11    1
     9     5     6    1
    10     5     9    1
    11     5    12    1
    12     5    13    1
    13     6    14    1
    14     7    15    1
    15     7    16    1
    16     7    17    1
    17     8    18    1
    18     8    19    1
    19     8    20    1
    20     9    21    1
    21     9    22    1
    22     9    23    1
