@<TRIPOS>MOLECULE
IMPHY002109
 123 128 0 0 0
SMALL
GASTEIGER

@<TRIPOS>ATOM
      1 O           9.5424    2.7172    0.0000 O.3     1  UNL1       -0.3910
      2 O           6.8671   -5.0350    0.0000 O.3     1  UNL1       -0.3448
      3 O           8.4192    4.5856    0.0000 O.3     1  UNL1       -0.3873
      4 O           6.8270    5.3584    0.0000 O.3     1  UNL1       -0.4549
      5 O           8.9636    4.1881    0.0000 O.3     1  UNL1       -0.4641
      6 O           9.3112   -4.3433    0.0000 O.3     1  UNL1       -0.3944
      7 O           5.1350   -5.0350    0.0000 O.3     1  UNL1       -0.3315
      8 O           6.8671   -7.0350    0.0000 O.3     1  UNL1       -0.3841
      9 O           5.0950    5.3450    0.0000 O.2     1  UNL1       -0.2453
     10 O          10.5979    3.6146    0.0000 O.2     1  UNL1       -0.2512
     11 O           5.1350   -8.0350    0.0000 O.3     1  UNL1       -0.3864
     12 O           3.4030   -7.0350    0.0000 O.3     1  UNL1       -0.3860
     13 O           2.5369   -5.5350    0.0000 O.3     1  UNL1       -0.4788
     14 O           3.4030   -4.0350    0.0000 O.2     1  UNL1       -0.2480
     15 C           7.7681   -0.3347    0.0000 C.3     1  UNL1       -0.0193
     16 C           6.9040   -0.8381    0.0000 C.3     1  UNL1       -0.0257
     17 C           6.8920   -1.8796    0.0000 C.3     1  UNL1       -0.0249
     18 C           7.7643    0.6653    0.0000 C.3     1  UNL1       -0.0028
     19 C           7.7920   -2.4039    0.0000 C.3     1  UNL1       -0.0255
     20 C           8.6801   -0.8381    0.0000 C.3     1  UNL1       -0.0463
     21 C           6.8963    1.1619    0.0000 C.2     1  UNL1       -0.0630
     22 C           6.8762    2.2034    0.0000 C.3     1  UNL1       -0.0051
     23 C           7.7722    2.7346    0.0000 C.3     1  UNL1        0.0666
     24 C           8.6921   -1.8796    0.0000 C.3     1  UNL1       -0.0485
     25 C           7.8046   -3.4888    0.0000 C.3     1  UNL1        0.0206
     26 C           8.6723    1.1756    0.0000 C.3     1  UNL1       -0.0165
     27 C           6.0361   -0.3414    0.0000 C.3     1  UNL1       -0.0306
     28 C           5.9421   -2.4039    0.0000 C.3     1  UNL1       -0.0447
     29 C           8.6763    2.2172    0.0000 C.3     1  UNL1        0.0678
     30 C           8.7522   -0.1573    0.0000 C.3     1  UNL1       -0.0585
     31 C           6.8671   -4.0350    0.0000 C.3     1  UNL1        0.0695
     32 C           6.0322    0.6586    0.0000 C.2     1  UNL1       -0.0836
     33 C           6.0279   -1.3763    0.0000 C.3     1  UNL1       -0.0590
     34 C           5.9223    2.7203    0.0000 C.3     1  UNL1       -0.0371
     35 C           8.7497    0.4954    0.0000 C.3     1  UNL1       -0.0552
     36 C           5.9295   -3.4888    0.0000 C.3     1  UNL1       -0.0254
     37 C           7.7764    3.8196    0.0000 C.3     1  UNL1        0.1042
     38 C           5.9014    3.8051    0.0000 C.3     1  UNL1        0.0052
     39 C           6.8347    4.3584    0.0000 C.3     1  UNL1        0.1349
     40 C           8.6324    3.2446    0.0000 C.3     1  UNL1        0.1034
     41 C           8.8046   -3.4811    0.0000 C.3     1  UNL1        0.0522
     42 C           8.3113   -4.3510    0.0000 C.3     1  UNL1       -0.0548
     43 C           4.9015    3.7897    0.0000 C.3     1  UNL1       -0.0563
     44 C           5.3881    4.6633    0.0000 C.3     1  UNL1       -0.0563
     45 C           6.0010   -5.5350    0.0000 C.3     1  UNL1        0.1888
     46 C           6.0010   -6.5350    0.0000 C.3     1  UNL1        0.1341
     47 C           5.9572    5.8517    0.0000 C.2     1  UNL1        0.3349
     48 C           9.9463    4.3732    0.0000 C.2     1  UNL1        0.3040
     49 C           5.1350   -7.0350    0.0000 C.3     1  UNL1        0.1145
     50 C           4.2690   -5.5350    0.0000 C.3     1  UNL1        0.1859
     51 C           4.2690   -6.5350    0.0000 C.3     1  UNL1        0.1201
     52 C           5.9494    6.8517    0.0000 C.2     1  UNL1        0.0293
     53 C          10.2774    5.3167    0.0000 C.3     1  UNL1        0.0332
     54 C           3.4030   -5.0350    0.0000 C.2     1  UNL1        0.3367
     55 C           6.8116    7.3583    0.0000 C.3     1  UNL1       -0.0333
     56 C           5.0796    7.3450    0.0000 C.2     1  UNL1       -0.0774
     57 C           5.0719    8.3450    0.0000 C.3     1  UNL1       -0.0461
     58 H           7.6385   -1.2659    0.0000 H       1  UNL1        0.0315
     59 H           8.5314   -2.8232    0.0000 H       1  UNL1        0.0313
     60 H           9.2921   -0.9371    0.0000 H       1  UNL1        0.0271
     61 H           8.8824   -0.2520    0.0000 H       1  UNL1        0.0271
     62 H           6.1502    1.7614    0.0000 H       1  UNL1        0.0354
     63 H           8.9079   -2.4609    0.0000 H       1  UNL1        0.0268
     64 H           9.3017   -1.7665    0.0000 H       1  UNL1        0.0268
     65 H           8.8791    0.5911    0.0000 H       1  UNL1        0.0299
     66 H           9.2836    1.2794    0.0000 H       1  UNL1        0.0299
     67 H           5.4251   -0.2361    0.0000 H       1  UNL1        0.0310
     68 H           5.8263   -0.9248    0.0000 H       1  UNL1        0.0310
     69 H           5.7398   -1.8178    0.0000 H       1  UNL1        0.0271
     70 H           5.3300   -2.5029    0.0000 H       1  UNL1        0.0271
     71 H           9.2127    1.9062    0.0000 H       1  UNL1        0.0601
     72 H           8.8623   -0.7675    0.0000 H       1  UNL1        0.0235
     73 H           9.3624   -0.0473    0.0000 H       1  UNL1        0.0235
     74 H           8.6422    0.4529    0.0000 H       1  UNL1        0.0235
     75 H           7.4046   -4.3439    0.0000 H       1  UNL1        0.0603
     76 H           5.4941    0.9665    0.0000 H       1  UNL1        0.0572
     77 H           6.3400   -0.8406    0.0000 H       1  UNL1        0.0235
     78 H           5.4922   -1.0642    0.0000 H       1  UNL1        0.0235
     79 H           5.7158   -1.9120    0.0000 H       1  UNL1        0.0235
     80 H           5.3095    2.8146    0.0000 H       1  UNL1        0.0278
     81 H           5.7246    2.1327    0.0000 H       1  UNL1        0.0278
     82 H           8.6444   -0.1156    0.0000 H       1  UNL1        0.0238
     83 H           9.3607    0.3901    0.0000 H       1  UNL1        0.0238
     84 H           8.8550    1.1064    0.0000 H       1  UNL1        0.0238
     85 H           5.3199   -3.3757    0.0000 H       1  UNL1        0.0290
     86 H           5.7137   -4.0701    0.0000 H       1  UNL1        0.0290
     87 H           8.3586    3.6064    0.0000 H       1  UNL1        0.0638
     88 H           7.3698    4.6715    0.0000 H       1  UNL1        0.0766
     89 H           8.7824    2.6430    0.0000 H       1  UNL1        0.0705
     90 H           9.2518    3.2157    0.0000 H       1  UNL1        0.0705
     91 H           9.3855   -3.2646    0.0000 H       1  UNL1        0.0563
     92 H           8.6922   -2.8714    0.0000 H       1  UNL1        0.0563
     93 H           7.7767   -4.6651    0.0000 H       1  UNL1        0.0237
     94 H           8.6254   -4.8855    0.0000 H       1  UNL1        0.0237
     95 H           8.8458   -4.0368    0.0000 H       1  UNL1        0.0237
     96 H          10.0793    2.4072    0.0000 H       1  UNL1        0.2098
     97 H           4.8920    4.4096    0.0000 H       1  UNL1        0.0236
     98 H           4.2816    3.7801    0.0000 H       1  UNL1        0.0236
     99 H           4.9111    3.1698    0.0000 H       1  UNL1        0.0236
    100 H           5.9202    4.9816    0.0000 H       1  UNL1        0.0236
    101 H           5.0699    5.1954    0.0000 H       1  UNL1        0.0236
    102 H           4.8560    4.3451    0.0000 H       1  UNL1        0.0236
    103 H           8.2072    5.1682    0.0000 H       1  UNL1        0.2100
    104 H           6.0010   -4.9150    0.0000 H       1  UNL1        0.0938
    105 H           9.9312   -4.3385    0.0000 H       1  UNL1        0.2094
    106 H           6.0010   -7.1550    0.0000 H       1  UNL1        0.0671
    107 H           4.5981   -7.3450    0.0000 H       1  UNL1        0.0648
    108 H           4.2690   -4.9150    0.0000 H       1  UNL1        0.0741
    109 H           3.7320   -6.2250    0.0000 H       1  UNL1        0.0652
    110 H          10.8625    5.1114    0.0000 H       1  UNL1        0.0342
    111 H          10.4827    5.9018    0.0000 H       1  UNL1        0.0342
    112 H           9.6924    5.5220    0.0000 H       1  UNL1        0.0342
    113 H           7.4040   -6.7250    0.0000 H       1  UNL1        0.2101
    114 H           5.6720   -8.3450    0.0000 H       1  UNL1        0.2100
    115 H           7.1257    6.8238    0.0000 H       1  UNL1        0.0280
    116 H           7.3461    7.6725    0.0000 H       1  UNL1        0.0280
    117 H           6.4974    7.8929    0.0000 H       1  UNL1        0.0280
    118 H           4.5450    7.0308    0.0000 H       1  UNL1        0.0574
    119 H           3.4030   -7.6550    0.0000 H       1  UNL1        0.2100
    120 H           5.6919    8.3497    0.0000 H       1  UNL1        0.0272
    121 H           5.0671    8.9649    0.0000 H       1  UNL1        0.0272
    122 H           4.4519    8.3402    0.0000 H       1  UNL1        0.0272
    123 H           2.0000   -5.2250    0.0000 H       1  UNL1        0.2951
@<TRIPOS>BOND
     1    29     1    1
     2     1    96    1
     3    31     2    1
     4    45     2    1
     5    37     3    1
     6     3   103    1
     7    39     4    1
     8     4    47    1
     9     5    40    1
    10     5    48    1
    11     6    41    1
    12     6   105    1
    13     7    45    1
    14     7    50    1
    15    46     8    1
    16     8   113    1
    17     9    47    2
    18    10    48    2
    19    49    11    1
    20    11   114    1
    21    51    12    1
    22    12   119    1
    23    13    54    1
    24    13   123    1
    25    14    54    2
    26    15    16    1
    27    15    18    1
    28    15    20    1
    29    15    30    1
    30    16    17    1
    31    16    27    1
    32    16    58    1
    33    17    19    1
    34    17    28    1
    35    17    33    1
    36    18    21    1
    37    18    26    1
    38    18    35    1
    39    19    24    1
    40    19    25    1
    41    19    59    1
    42    20    24    1
    43    20    60    1
    44    20    61    1
    45    21    22    1
    46    21    32    2
    47    22    23    1
    48    22    34    1
    49    22    62    1
    50    23    29    1
    51    23    37    1
    52    23    40    1
    53    24    63    1
    54    24    64    1
    55    25    31    1
    56    25    41    1
    57    25    42    1
    58    26    29    1
    59    26    65    1
    60    26    66    1
    61    27    32    1
    62    27    67    1
    63    27    68    1
    64    28    36    1
    65    28    69    1
    66    28    70    1
    67    29    71    1
    68    30    72    1
    69    30    73    1
    70    30    74    1
    71    31    36    1
    72    31    75    1
    73    32    76    1
    74    33    77    1
    75    33    78    1
    76    33    79    1
    77    34    38    1
    78    34    80    1
    79    34    81    1
    80    35    82    1
    81    35    83    1
    82    35    84    1
    83    36    85    1
    84    36    86    1
    85    37    39    1
    86    37    87    1
    87    38    39    1
    88    38    43    1
    89    38    44    1
    90    39    88    1
    91    40    89    1
    92    40    90    1
    93    41    91    1
    94    41    92    1
    95    42    93    1
    96    42    94    1
    97    42    95    1
    98    43    97    1
    99    43    98    1
   100    43    99    1
   101    44   100    1
   102    44   101    1
   103    44   102    1
   104    45    46    1
   105    45   104    1
   106    46    49    1
   107    46   106    1
   108    47    52    1
   109    48    53    1
   110    49    51    1
   111    49   107    1
   112    50    51    1
   113    50    54    1
   114    50   108    1
   115    51   109    1
   116    52    55    1
   117    52    56    2
   118    53   110    1
   119    53   111    1
   120    53   112    1
   121    55   115    1
   122    55   116    1
   123    55   117    1
   124    56    57    1
   125    56   118    1
   126    57   120    1
   127    57   121    1
   128    57   122    1
