@<TRIPOS>MOLECULE
IMPHY017535
 61 62 0 0 0
SMALL
GASTEIGER

@<TRIPOS>ATOM
      1 O           2.5000   -5.9462    0.0000 O.3     1  UNL1       -0.4679
      2 O           4.0000   -6.8122    0.0000 O.2     1  UNL1       -0.2509
      3 C           7.8660   -2.8481    0.0000 C.3     1  UNL1       -0.0377
      4 C           6.3660   -3.7141    0.0000 C.3     1  UNL1       -0.0377
      5 C           7.8660   -1.8481    0.0000 C.3     1  UNL1       -0.0379
      6 C           5.5000   -4.2141    0.0000 C.3     1  UNL1       -0.0374
      7 C           7.3660   -3.7141    0.0000 C.3     1  UNL1       -0.0468
      8 C           8.7320   -2.3481    0.0000 C.3     1  UNL1       -0.0469
      9 C           5.5000   -3.2141    0.0000 C.3     1  UNL1       -0.0468
     10 C           7.3660   -0.9821    0.0000 C.3     1  UNL1       -0.0499
     11 C           5.0000   -5.0801    0.0000 C.3     1  UNL1       -0.0399
     12 C           7.8660   -0.1160    0.0000 C.3     1  UNL1       -0.0528
     13 C           4.0000   -5.0801    0.0000 C.3     1  UNL1        0.0452
     14 C           7.3660    0.7500    0.0000 C.3     1  UNL1       -0.0530
     15 C           3.5000   -5.9462    0.0000 C.2     1  UNL1        0.3068
     16 C           7.8660    1.6160    0.0000 C.3     1  UNL1       -0.0531
     17 C           7.3660    2.4820    0.0000 C.3     1  UNL1       -0.0531
     18 C           7.8660    3.3481    0.0000 C.3     1  UNL1       -0.0531
     19 C           7.3660    4.2141    0.0000 C.3     1  UNL1       -0.0531
     20 C           2.0000   -6.8122    0.0000 C.3     1  UNL1        0.0817
     21 C           7.8660    5.0801    0.0000 C.3     1  UNL1       -0.0533
     22 C           7.3660    5.9462    0.0000 C.3     1  UNL1       -0.0559
     23 C           7.8660    6.8122    0.0000 C.3     1  UNL1       -0.0653
     24 H           7.0450   -2.6281    0.0000 H       1  UNL1        0.0304
     25 H           6.5860   -2.8931    0.0000 H       1  UNL1        0.0304
     26 H           7.0450   -2.0681    0.0000 H       1  UNL1        0.0304
     27 H           6.1010   -4.8151    0.0000 H       1  UNL1        0.0304
     28 H           7.2584   -4.3247    0.0000 H       1  UNL1        0.0271
     29 H           7.9486   -3.9262    0.0000 H       1  UNL1        0.0271
     30 H           9.1306   -2.8230    0.0000 H       1  UNL1        0.0271
     31 H           9.1306   -1.8731    0.0000 H       1  UNL1        0.0271
     32 H           5.7120   -2.6315    0.0000 H       1  UNL1        0.0271
     33 H           4.8894   -3.1064    0.0000 H       1  UNL1        0.0271
     34 H           6.8911   -0.5835    0.0000 H       1  UNL1        0.0268
     35 H           6.8911   -1.3806    0.0000 H       1  UNL1        0.0268
     36 H           4.8923   -5.6907    0.0000 H       1  UNL1        0.0273
     37 H           5.5826   -5.2922    0.0000 H       1  UNL1        0.0273
     38 H           8.3410   -0.5146    0.0000 H       1  UNL1        0.0265
     39 H           8.3410    0.2825    0.0000 H       1  UNL1        0.0265
     40 H           4.1077   -4.4696    0.0000 H       1  UNL1        0.0378
     41 H           3.4174   -4.8681    0.0000 H       1  UNL1        0.0378
     42 H           6.8911    1.1485    0.0000 H       1  UNL1        0.0265
     43 H           6.8911    0.3515    0.0000 H       1  UNL1        0.0265
     44 H           8.3410    1.2175    0.0000 H       1  UNL1        0.0265
     45 H           8.3410    2.0146    0.0000 H       1  UNL1        0.0265
     46 H           6.8911    2.8806    0.0000 H       1  UNL1        0.0265
     47 H           6.8911    2.0835    0.0000 H       1  UNL1        0.0265
     48 H           8.3410    2.9496    0.0000 H       1  UNL1        0.0265
     49 H           8.3410    3.7466    0.0000 H       1  UNL1        0.0265
     50 H           6.8911    4.6126    0.0000 H       1  UNL1        0.0265
     51 H           6.8911    3.8156    0.0000 H       1  UNL1        0.0265
     52 H           1.4631   -6.5022    0.0000 H       1  UNL1        0.0661
     53 H           1.6900   -7.3491    0.0000 H       1  UNL1        0.0661
     54 H           2.5369   -7.1222    0.0000 H       1  UNL1        0.0661
     55 H           8.3410    4.6816    0.0000 H       1  UNL1        0.0265
     56 H           8.3410    5.4787    0.0000 H       1  UNL1        0.0265
     57 H           6.8911    6.3447    0.0000 H       1  UNL1        0.0263
     58 H           6.8911    5.5476    0.0000 H       1  UNL1        0.0263
     59 H           8.4030    6.5022    0.0000 H       1  UNL1        0.0230
     60 H           8.1760    7.3491    0.0000 H       1  UNL1        0.0230
     61 H           7.3291    7.1222    0.0000 H       1  UNL1        0.0230
@<TRIPOS>BOND
     1     1    15    1
     2     1    20    1
     3     2    15    2
     4     3     5    1
     5     3     7    1
     6     3     8    1
     7     3    24    1
     8     4     6    1
     9     4     7    1
    10     4     9    1
    11     4    25    1
    12     5     8    1
    13     5    10    1
    14     5    26    1
    15     6     9    1
    16     6    11    1
    17     6    27    1
    18     7    28    1
    19     7    29    1
    20     8    30    1
    21     8    31    1
    22     9    32    1
    23     9    33    1
    24    10    12    1
    25    10    34    1
    26    10    35    1
    27    11    13    1
    28    11    36    1
    29    11    37    1
    30    12    14    1
    31    12    38    1
    32    12    39    1
    33    13    15    1
    34    13    40    1
    35    13    41    1
    36    14    16    1
    37    14    42    1
    38    14    43    1
    39    16    17    1
    40    16    44    1
    41    16    45    1
    42    17    18    1
    43    17    46    1
    44    17    47    1
    45    18    19    1
    46    18    48    1
    47    18    49    1
    48    19    21    1
    49    19    50    1
    50    19    51    1
    51    20    52    1
    52    20    53    1
    53    20    54    1
    54    21    22    1
    55    21    55    1
    56    21    56    1
    57    22    23    1
    58    22    57    1
    59    22    58    1
    60    23    59    1
    61    23    60    1
    62    23    61    1
