@<TRIPOS>MOLECULE
IMPHY015583
 72 72 0 0 0
SMALL
GASTEIGER

@<TRIPOS>ATOM
      1 O           3.7071   -1.3879    0.0000 O.3     1  UNL1       -0.4534
      2 O           6.3461   -1.1984    0.0000 O.3     1  UNL1       -0.4567
      3 O           4.9318   -2.6126    0.0000 O.2     1  UNL1       -0.2376
      4 O           5.1213    0.0263    0.0000 O.2     1  UNL1       -0.2376
      5 C           3.0000   -2.0950    0.0000 C.3     1  UNL1        0.1036
      6 C           3.0000   -3.0950    0.0000 C.3     1  UNL1       -0.0155
      7 C           2.0000   -2.0950    0.0000 C.3     1  UNL1       -0.0155
      8 C           2.0000   -3.0950    0.0000 C.3     1  UNL1       -0.0464
      9 C          13.7453    1.3018    0.0000 C.3     1  UNL1       -0.0531
     10 C          14.7112    1.0430    0.0000 C.3     1  UNL1       -0.0531
     11 C          13.0382    0.5947    0.0000 C.3     1  UNL1       -0.0531
     12 C          15.4183    1.7501    0.0000 C.3     1  UNL1       -0.0531
     13 C          12.0723    0.8536    0.0000 C.3     1  UNL1       -0.0531
     14 C          16.3843    1.4913    0.0000 C.3     1  UNL1       -0.0531
     15 C          11.3652    0.1464    0.0000 C.3     1  UNL1       -0.0531
     16 C          17.0914    2.1984    0.0000 C.3     1  UNL1       -0.0531
     17 C          10.3992    0.4053    0.0000 C.3     1  UNL1       -0.0531
     18 C          18.0573    1.9396    0.0000 C.3     1  UNL1       -0.0531
     19 C           9.6921   -0.3018    0.0000 C.3     1  UNL1       -0.0530
     20 C          18.7644    2.6467    0.0000 C.3     1  UNL1       -0.0531
     21 C           8.7262   -0.0430    0.0000 C.3     1  UNL1       -0.0500
     22 C          19.7303    2.3879    0.0000 C.3     1  UNL1       -0.0533
     23 C           8.0191   -0.7501    0.0000 C.3     1  UNL1       -0.0185
     24 C           4.6730   -1.6467    0.0000 C.2     1  UNL1        0.4176
     25 C           7.0532   -0.4913    0.0000 C.3     1  UNL1        0.0930
     26 C          20.4374    3.0950    0.0000 C.3     1  UNL1       -0.0559
     27 C           5.3801   -0.9396    0.0000 C.2     1  UNL1        0.4173
     28 C          21.4034    2.8362    0.0000 C.3     1  UNL1       -0.0653
     29 H           3.5728   -2.3323    0.0000 H       1  UNL1        0.0734
     30 H           3.0000   -3.7150    0.0000 H       1  UNL1        0.0301
     31 H           3.6200   -3.0950    0.0000 H       1  UNL1        0.0301
     32 H           2.0000   -1.4750    0.0000 H       1  UNL1        0.0301
     33 H           1.3800   -2.0950    0.0000 H       1  UNL1        0.0301
     34 H           1.3800   -3.0950    0.0000 H       1  UNL1        0.0268
     35 H           2.0000   -3.7150    0.0000 H       1  UNL1        0.0268
     36 H          14.0073    1.8638    0.0000 H       1  UNL1        0.0265
     37 H          13.2374    1.6575    0.0000 H       1  UNL1        0.0265
     38 H          14.4492    0.4811    0.0000 H       1  UNL1        0.0265
     39 H          15.2191    0.6874    0.0000 H       1  UNL1        0.0265
     40 H          12.7762    0.0328    0.0000 H       1  UNL1        0.0265
     41 H          13.5461    0.2391    0.0000 H       1  UNL1        0.0265
     42 H          15.6804    2.3120    0.0000 H       1  UNL1        0.0265
     43 H          14.9105    2.1058    0.0000 H       1  UNL1        0.0265
     44 H          12.3343    1.4155    0.0000 H       1  UNL1        0.0265
     45 H          11.5644    1.2092    0.0000 H       1  UNL1        0.0265
     46 H          16.1222    0.9294    0.0000 H       1  UNL1        0.0265
     47 H          16.8921    1.1357    0.0000 H       1  UNL1        0.0265
     48 H          11.1031   -0.4155    0.0000 H       1  UNL1        0.0265
     49 H          11.8730   -0.2092    0.0000 H       1  UNL1        0.0265
     50 H          17.3534    2.7603    0.0000 H       1  UNL1        0.0265
     51 H          16.5835    2.5540    0.0000 H       1  UNL1        0.0265
     52 H          10.6613    0.9672    0.0000 H       1  UNL1        0.0265
     53 H           9.8914    0.7609    0.0000 H       1  UNL1        0.0265
     54 H          17.7953    1.3777    0.0000 H       1  UNL1        0.0265
     55 H          18.5652    1.5840    0.0000 H       1  UNL1        0.0265
     56 H           9.4301   -0.8638    0.0000 H       1  UNL1        0.0265
     57 H          10.2000   -0.6575    0.0000 H       1  UNL1        0.0265
     58 H          19.0264    3.2086    0.0000 H       1  UNL1        0.0265
     59 H          18.2565    3.0023    0.0000 H       1  UNL1        0.0265
     60 H           8.9882    0.5189    0.0000 H       1  UNL1        0.0266
     61 H           8.2183    0.3126    0.0000 H       1  UNL1        0.0266
     62 H          19.4683    1.8260    0.0000 H       1  UNL1        0.0265
     63 H          20.2382    2.0323    0.0000 H       1  UNL1        0.0265
     64 H           7.7571   -1.3120    0.0000 H       1  UNL1        0.0298
     65 H           8.5270   -1.1058    0.0000 H       1  UNL1        0.0298
     66 H          20.6995    3.6569    0.0000 H       1  UNL1        0.0263
     67 H          19.9296    3.4506    0.0000 H       1  UNL1        0.0263
     68 H           7.3152    0.0706    0.0000 H       1  UNL1        0.0697
     69 H           6.5453   -0.1357    0.0000 H       1  UNL1        0.0697
     70 H          21.2429    2.2373    0.0000 H       1  UNL1        0.0230
     71 H          22.0022    2.6757    0.0000 H       1  UNL1        0.0230
     72 H          21.5638    3.4350    0.0000 H       1  UNL1        0.0230
@<TRIPOS>BOND
     1     1     5    1
     2     1    24    1
     3     2    25    1
     4     2    27    1
     5     3    24    2
     6     4    27    2
     7     5     6    1
     8     5     7    1
     9     5    29    1
    10     6     8    1
    11     6    30    1
    12     6    31    1
    13     7     8    1
    14     7    32    1
    15     7    33    1
    16     8    34    1
    17     8    35    1
    18     9    10    1
    19     9    11    1
    20     9    36    1
    21     9    37    1
    22    10    12    1
    23    10    38    1
    24    10    39    1
    25    11    13    1
    26    11    40    1
    27    11    41    1
    28    12    14    1
    29    12    42    1
    30    12    43    1
    31    13    15    1
    32    13    44    1
    33    13    45    1
    34    14    16    1
    35    14    46    1
    36    14    47    1
    37    15    17    1
    38    15    48    1
    39    15    49    1
    40    16    18    1
    41    16    50    1
    42    16    51    1
    43    17    19    1
    44    17    52    1
    45    17    53    1
    46    18    20    1
    47    18    54    1
    48    18    55    1
    49    19    21    1
    50    19    56    1
    51    19    57    1
    52    20    22    1
    53    20    58    1
    54    20    59    1
    55    21    23    1
    56    21    60    1
    57    21    61    1
    58    22    26    1
    59    22    62    1
    60    22    63    1
    61    23    25    1
    62    23    64    1
    63    23    65    1
    64    24    27    1
    65    25    68    1
    66    25    69    1
    67    26    28    1
    68    26    66    1
    69    26    67    1
    70    28    70    1
    71    28    71    1
    72    28    72    1
