@<TRIPOS>MOLECULE
IMPHY006788
 79 86 0 0 0
SMALL
GASTEIGER

@<TRIPOS>ATOM
      1 O           6.1964   -0.4697    0.0000 O.3     1  UNL1       -0.4482
      2 O           4.5808    0.4630    0.0000 O.3     1  UNL1       -0.4449
      3 O           2.8698   -0.4358    0.0000 O.3     1  UNL1       -0.4913
      4 O          10.5744   -1.8518    0.0000 O.3     1  UNL1       -0.4523
      5 O           9.6491   -1.2820    0.0000 O.3     1  UNL1       -0.4914
      6 N           6.3071   -3.4051    0.0000 N.3     1  UNL1       -0.2977
      7 N           7.9446    3.4118    0.0000 N.3     1  UNL1       -0.2978
      8 C           6.2915   -2.3931    0.0000 C.3     1  UNL1        0.0432
      9 C           7.9368    2.3998    0.0000 C.3     1  UNL1        0.0397
     10 C           5.4036   -1.9076    0.0000 C.ar    1  UNL1        0.0194
     11 C           7.0527    1.9074    0.0000 C.ar    1  UNL1       -0.0231
     12 C           4.5660   -2.3998    0.0000 C.ar    1  UNL1       -0.0343
     13 C           5.4346   -3.9178    0.0000 C.3     1  UNL1        0.0032
     14 C           4.5581   -3.4118    0.0000 C.3     1  UNL1       -0.0143
     15 C           6.2112    2.3932    0.0000 C.ar    1  UNL1       -0.0378
     16 C           7.0682    3.9178    0.0000 C.3     1  UNL1        0.0032
     17 C           6.1957    3.4051    0.0000 C.3     1  UNL1       -0.0144
     18 C           7.0902   -1.9113    0.0000 C.3     1  UNL1       -0.0078
     19 C           5.3886   -0.9361    0.0000 C.ar    1  UNL1        0.1792
     20 C           8.7392    1.9241    0.0000 C.3     1  UNL1       -0.0078
     21 C           7.0452    0.9358    0.0000 C.ar    1  UNL1       -0.0107
     22 C           6.1964    0.4630    0.0000 C.ar    1  UNL1        0.1710
     23 C           4.5808   -0.4697    0.0000 C.ar    1  UNL1        0.2122
     24 C           5.3886    0.9294    0.0000 C.ar    1  UNL1        0.1711
     25 C           5.3736    1.9008    0.0000 C.ar    1  UNL1       -0.0121
     26 C           3.7245   -1.9140    0.0000 C.ar    1  UNL1       -0.0125
     27 C           7.1770   -3.8984    0.0000 C.3     1  UNL1       -0.0122
     28 C           3.7320   -0.9424    0.0000 C.ar    1  UNL1        0.1661
     29 C           8.8107    3.9118    0.0000 C.3     1  UNL1       -0.0122
     30 C           7.9068   -2.3620    0.0000 C.ar    1  UNL1       -0.0453
     31 C           8.7282    0.9663    0.0000 C.ar    1  UNL1       -0.0419
     32 C           7.9247   -3.2946    0.0000 C.ar    1  UNL1       -0.0550
     33 C           8.7054   -1.8801    0.0000 C.ar    1  UNL1       -0.0550
     34 C           9.5521    0.4779    0.0000 C.ar    1  UNL1       -0.0124
     35 C           7.8932    0.4970    0.0000 C.ar    1  UNL1       -0.0548
     36 C           9.5411   -0.4798    0.0000 C.ar    1  UNL1        0.1701
     37 C           8.7413   -3.7452    0.0000 C.ar    1  UNL1       -0.0191
     38 C           9.5220   -2.3308    0.0000 C.ar    1  UNL1       -0.0191
     39 C           9.5400   -3.2635    0.0000 C.ar    1  UNL1        0.1286
     40 C           7.8822   -0.4608    0.0000 C.ar    1  UNL1       -0.0160
     41 C           8.7061   -0.9492    0.0000 C.ar    1  UNL1        0.1621
     42 C           2.0000   -0.9291    0.0000 C.3     1  UNL1        0.0790
     43 C          10.4089   -0.6317    0.0000 C.3     1  UNL1        0.0790
     44 H           6.2734   -1.5433    0.0000 H       1  UNL1        0.0516
     45 H           8.6770    2.8176    0.0000 H       1  UNL1        0.0515
     46 H           5.0373   -4.3938    0.0000 H       1  UNL1        0.0430
     47 H           5.8356   -4.3907    0.0000 H       1  UNL1        0.0430
     48 H           3.9481   -3.3010    0.0000 H       1  UNL1        0.0326
     49 H           4.3446   -3.9939    0.0000 H       1  UNL1        0.0326
     50 H           7.4654    4.3938    0.0000 H       1  UNL1        0.0430
     51 H           6.6672    4.3907    0.0000 H       1  UNL1        0.0430
     52 H           5.9776    3.9855    0.0000 H       1  UNL1        0.0326
     53 H           5.5865    3.2896    0.0000 H       1  UNL1        0.0326
     54 H           7.4795   -1.4288    0.0000 H       1  UNL1        0.0332
     55 H           6.6826   -1.4441    0.0000 H       1  UNL1        0.0332
     56 H           9.3485    1.8094    0.0000 H       1  UNL1        0.0332
     57 H           8.9579    2.5042    0.0000 H       1  UNL1        0.0332
     58 H           7.5785    0.6196    0.0000 H       1  UNL1        0.0659
     59 H           4.8331    2.2046    0.0000 H       1  UNL1        0.0658
     60 H           3.1864   -2.2219    0.0000 H       1  UNL1        0.0658
     61 H           6.8711   -4.4377    0.0000 H       1  UNL1        0.0391
     62 H           7.7163   -4.2043    0.0000 H       1  UNL1        0.0391
     63 H           7.4828   -3.3591    0.0000 H       1  UNL1        0.0391
     64 H           9.1207    3.3749    0.0000 H       1  UNL1        0.0391
     65 H           9.3476    4.2219    0.0000 H       1  UNL1        0.0391
     66 H           8.5006    4.4488    0.0000 H       1  UNL1        0.0391
     67 H           7.3938   -3.6148    0.0000 H       1  UNL1        0.0621
     68 H           8.6934   -1.2603    0.0000 H       1  UNL1        0.0621
     69 H          10.0926    0.7818    0.0000 H       1  UNL1        0.0658
     70 H           7.3598    0.8131    0.0000 H       1  UNL1        0.0621
     71 H           8.7532   -4.3651    0.0000 H       1  UNL1        0.0654
     72 H          10.0529   -2.0105    0.0000 H       1  UNL1        0.0654
     73 H           7.3417   -0.7646    0.0000 H       1  UNL1        0.0655
     74 H           1.6941   -0.3898    0.0000 H       1  UNL1        0.0660
     75 H           1.4607   -1.2350    0.0000 H       1  UNL1        0.0660
     76 H           2.3059   -1.4684    0.0000 H       1  UNL1        0.0660
     77 H          10.8120   -1.1028    0.0000 H       1  UNL1        0.0660
     78 H          10.8799   -0.2286    0.0000 H       1  UNL1        0.0660
     79 H          10.0057   -0.1607    0.0000 H       1  UNL1        0.0660
@<TRIPOS>BOND
     1     1    19    1
     2     1    22    1
     3     2    23    1
     4     2    24    1
     5     3    28    1
     6     3    42    1
     7     4    36    1
     8     4    39    1
     9     5    41    1
    10     5    43    1
    11     6     8    1
    12     6    13    1
    13     6    27    1
    14     7     9    1
    15     7    16    1
    16     7    29    1
    17     8    10    1
    18     8    18    1
    19     8    44    1
    20     9    11    1
    21     9    20    1
    22     9    45    1
    23    10    12   ar
    24    10    19   ar
    25    11    15   ar
    26    11    21   ar
    27    12    14    1
    28    12    26   ar
    29    13    14    1
    30    13    46    1
    31    13    47    1
    32    14    48    1
    33    14    49    1
    34    15    17    1
    35    15    25   ar
    36    16    17    1
    37    16    50    1
    38    16    51    1
    39    17    52    1
    40    17    53    1
    41    18    30    1
    42    18    54    1
    43    18    55    1
    44    19    23   ar
    45    20    31    1
    46    20    56    1
    47    20    57    1
    48    21    22   ar
    49    21    58    1
    50    22    24   ar
    51    23    28   ar
    52    24    25   ar
    53    25    59    1
    54    26    28   ar
    55    26    60    1
    56    27    61    1
    57    27    62    1
    58    27    63    1
    59    29    64    1
    60    29    65    1
    61    29    66    1
    62    30    32   ar
    63    30    33   ar
    64    31    34   ar
    65    31    35   ar
    66    32    37   ar
    67    32    67    1
    68    33    38   ar
    69    33    68    1
    70    34    36   ar
    71    34    69    1
    72    35    40   ar
    73    35    70    1
    74    36    41   ar
    75    37    39   ar
    76    37    71    1
    77    38    39   ar
    78    38    72    1
    79    40    41   ar
    80    40    73    1
    81    42    74    1
    82    42    75    1
    83    42    76    1
    84    43    77    1
    85    43    78    1
    86    43    79    1
