@<TRIPOS>MOLECULE
IMPHY016345
 32 31 0 0 0
SMALL
GASTEIGER

@<TRIPOS>ATOM
      1 O           2.5369   -1.6270    0.0000 O.3     1  UNL1       -0.3888
      2 O           7.7331    1.3730    0.0000 O.3     1  UNL1       -0.3888
      3 C           3.4030   -1.1270    0.0000 C.3     1  UNL1        0.0639
      4 C           6.8671    0.8730    0.0000 C.3     1  UNL1        0.0639
      5 C           4.2690   -0.6270    0.0000 C.3     1  UNL1       -0.0063
      6 C           6.0010    0.3730    0.0000 C.3     1  UNL1       -0.0063
      7 C           5.1350   -1.1270    0.0000 C.2     1  UNL1       -0.0852
      8 C           6.0010   -0.6270    0.0000 C.2     1  UNL1       -0.0852
      9 C           2.9030   -0.2610    0.0000 C.3     1  UNL1       -0.0360
     10 C           3.9030   -1.9930    0.0000 C.3     1  UNL1       -0.0360
     11 C           6.3671    1.7390    0.0000 C.3     1  UNL1       -0.0360
     12 C           7.3671    0.0070    0.0000 C.3     1  UNL1       -0.0360
     13 H           4.6675   -0.1520    0.0000 H       1  UNL1        0.0335
     14 H           3.8705   -0.1520    0.0000 H       1  UNL1        0.0335
     15 H           5.7890    0.9556    0.0000 H       1  UNL1        0.0335
     16 H           5.3905    0.2654    0.0000 H       1  UNL1        0.0335
     17 H           5.1350   -1.7470    0.0000 H       1  UNL1        0.0570
     18 H           6.5380   -0.9370    0.0000 H       1  UNL1        0.0570
     19 H           3.4399    0.0490    0.0000 H       1  UNL1        0.0257
     20 H           2.5930    0.2760    0.0000 H       1  UNL1        0.0257
     21 H           2.3660   -0.5710    0.0000 H       1  UNL1        0.0257
     22 H           3.3660   -2.3030    0.0000 H       1  UNL1        0.0257
     23 H           4.2130   -2.5300    0.0000 H       1  UNL1        0.0257
     24 H           4.4399   -1.6830    0.0000 H       1  UNL1        0.0257
     25 H           6.9040    2.0490    0.0000 H       1  UNL1        0.0257
     26 H           6.0571    2.2760    0.0000 H       1  UNL1        0.0257
     27 H           5.8301    1.4290    0.0000 H       1  UNL1        0.0257
     28 H           6.8301   -0.3030    0.0000 H       1  UNL1        0.0257
     29 H           7.6771   -0.5299    0.0000 H       1  UNL1        0.0257
     30 H           7.9040    0.3170    0.0000 H       1  UNL1        0.0257
     31 H           2.0000   -1.3170    0.0000 H       1  UNL1        0.2101
     32 H           7.7331    1.9930    0.0000 H       1  UNL1        0.2101
@<TRIPOS>BOND
     1     1     3    1
     2     1    31    1
     3     2     4    1
     4     2    32    1
     5     3     5    1
     6     3     9    1
     7     3    10    1
     8     4     6    1
     9     4    11    1
    10     4    12    1
    11     5     7    1
    12     5    13    1
    13     5    14    1
    14     6     8    1
    15     6    15    1
    16     6    16    1
    17     7     8    2
    18     7    17    1
    19     8    18    1
    20     9    19    1
    21     9    20    1
    22     9    21    1
    23    10    22    1
    24    10    23    1
    25    10    24    1
    26    11    25    1
    27    11    26    1
    28    11    27    1
    29    12    28    1
    30    12    29    1
    31    12    30    1
