@<TRIPOS>MOLECULE
IMPHY001895
 83 87 0 0 0
SMALL
GASTEIGER

@<TRIPOS>ATOM
      1 O           4.7789    0.0909    0.0000 O.3     1  UNL1       -0.3837
      2 O          10.9848    2.7352    0.0000 O.3     1  UNL1       -0.3887
      3 O           9.1654    3.7671    0.0000 O.3     1  UNL1       -0.3892
      4 O           3.8493   -3.4509    0.0000 O.3     1  UNL1       -0.4802
      5 O           5.5813   -3.4642    0.0000 O.2     1  UNL1       -0.2504
      6 C           7.3770   -0.4091    0.0000 C.3     1  UNL1       -0.0170
      7 C           6.5109   -0.9091    0.0000 C.3     1  UNL1        0.0066
      8 C           7.3770    0.5909    0.0000 C.3     1  UNL1       -0.0111
      9 C           8.2709    1.1255    0.0000 C.3     1  UNL1       -0.0195
     10 C           5.6449   -0.4091    0.0000 C.3     1  UNL1        0.0940
     11 C           4.7349   -0.9160    0.0000 C.3     1  UNL1        0.0105
     12 C           9.1770    0.6117    0.0000 C.3     1  UNL1       -0.0274
     13 C           8.2709   -0.9438    0.0000 C.3     1  UNL1       -0.0462
     14 C           4.7269   -1.9576    0.0000 C.3     1  UNL1        0.0736
     15 C           6.5270   -1.9506    0.0000 C.3     1  UNL1       -0.0432
     16 C           9.1770   -0.4300    0.0000 C.3     1  UNL1       -0.0486
     17 C          10.1208    1.1469    0.0000 C.3     1  UNL1       -0.0032
     18 C           5.6290   -2.4784    0.0000 C.3     1  UNL1       -0.0363
     19 C           8.2458    2.2102    0.0000 C.3     1  UNL1       -0.0182
     20 C           3.8081   -0.3519    0.0000 C.3     1  UNL1       -0.0345
     21 C           6.5109    1.0909    0.0000 C.2     1  UNL1       -0.0811
     22 C           5.6449    0.5909    0.0000 C.2     1  UNL1       -0.0557
     23 C           7.7191   -1.3488    0.0000 C.3     1  UNL1       -0.0584
     24 C           7.1537   -1.6752    0.0000 C.3     1  UNL1       -0.0561
     25 C           3.7914   -2.5073    0.0000 C.3     1  UNL1       -0.0366
     26 C          10.1208    2.2319    0.0000 C.3     1  UNL1        0.0864
     27 C           7.4010    1.6188    0.0000 C.3     1  UNL1       -0.0587
     28 C           9.1770    2.7671    0.0000 C.3     1  UNL1        0.0821
     29 C           2.8602   -0.8799    0.0000 C.3     1  UNL1       -0.0409
     30 C           2.8518   -1.9648    0.0000 C.3     1  UNL1       -0.0492
     31 C           4.7192   -2.9576    0.0000 C.2     1  UNL1        0.3113
     32 C          11.1207    1.1431    0.0000 C.3     1  UNL1       -0.0571
     33 C          10.6174    0.2790    0.0000 C.3     1  UNL1       -0.0571
     34 C           3.8273    0.6479    0.0000 C.3     1  UNL1       -0.0618
     35 C           2.0000   -0.3699    0.0000 C.3     1  UNL1       -0.0622
     36 H           8.1163    0.1715    0.0000 H       1  UNL1        0.0354
     37 H           5.4661   -1.3495    0.0000 H       1  UNL1        0.0345
     38 H           9.9114    0.1838    0.0000 H       1  UNL1        0.0312
     39 H           7.8663   -1.4136    0.0000 H       1  UNL1        0.0271
     40 H           8.6645   -1.4228    0.0000 H       1  UNL1        0.0271
     41 H           6.7450   -2.5310    0.0000 H       1  UNL1        0.0272
     42 H           7.1361   -1.8352    0.0000 H       1  UNL1        0.0272
     43 H           9.3860   -1.0136    0.0000 H       1  UNL1        0.0268
     44 H           9.7878   -0.3239    0.0000 H       1  UNL1        0.0268
     45 H           5.2316   -2.9544    0.0000 H       1  UNL1        0.0276
     46 H           6.0299   -2.9513    0.0000 H       1  UNL1        0.0276
     47 H           8.0233    2.7889    0.0000 H       1  UNL1        0.0296
     48 H           7.6376    2.0900    0.0000 H       1  UNL1        0.0296
     49 H           4.3515   -0.0534    0.0000 H       1  UNL1        0.0305
     50 H           6.5109    1.7109    0.0000 H       1  UNL1        0.0573
     51 H           5.1080    0.9009    0.0000 H       1  UNL1        0.0598
     52 H           7.1365   -1.5609    0.0000 H       1  UNL1        0.0235
     53 H           7.9312   -1.9314    0.0000 H       1  UNL1        0.0235
     54 H           8.3017   -1.1367    0.0000 H       1  UNL1        0.0235
     55 H           6.6788   -2.0737    0.0000 H       1  UNL1        0.0236
     56 H           7.5522   -2.1501    0.0000 H       1  UNL1        0.0236
     57 H           7.6287   -1.2767    0.0000 H       1  UNL1        0.0236
     58 H           3.3942   -2.9833    0.0000 H       1  UNL1        0.0276
     59 H           4.1924   -2.9802    0.0000 H       1  UNL1        0.0276
     60 H          10.6583    1.9229    0.0000 H       1  UNL1        0.0624
     61 H           7.7069    2.1581    0.0000 H       1  UNL1        0.0235
     62 H           6.8617    1.9247    0.0000 H       1  UNL1        0.0235
     63 H           7.0952    1.0795    0.0000 H       1  UNL1        0.0235
     64 H           8.6359    3.0699    0.0000 H       1  UNL1        0.0619
     65 H           2.8686   -0.2599    0.0000 H       1  UNL1        0.0301
     66 H           2.2418   -1.8540    0.0000 H       1  UNL1        0.0268
     67 H           2.6383   -2.5469    0.0000 H       1  UNL1        0.0268
     68 H           4.7789    0.7109    0.0000 H       1  UNL1        0.2106
     69 H          11.1184    0.5231    0.0000 H       1  UNL1        0.0236
     70 H          10.0793   -0.0290    0.0000 H       1  UNL1        0.0236
     71 H          10.9253   -0.2592    0.0000 H       1  UNL1        0.0236
     72 H          11.1555    0.5869    0.0000 H       1  UNL1        0.0236
     73 H          11.7407    1.1407    0.0000 H       1  UNL1        0.0236
     74 H          11.1231    1.7630    0.0000 H       1  UNL1        0.0236
     75 H           4.4472    0.6360    0.0000 H       1  UNL1        0.0233
     76 H           3.8393    1.2678    0.0000 H       1  UNL1        0.0233
     77 H           3.2075    0.6599    0.0000 H       1  UNL1        0.0233
     78 H           2.3162    0.1634    0.0000 H       1  UNL1        0.0233
     79 H           1.4667   -0.0537    0.0000 H       1  UNL1        0.0233
     80 H           1.6838   -0.9032    0.0000 H       1  UNL1        0.0233
     81 H          10.9825    3.3552    0.0000 H       1  UNL1        0.2099
     82 H           8.6249    4.0708    0.0000 H       1  UNL1        0.2099
     83 H           3.8445   -4.0708    0.0000 H       1  UNL1        0.2951
@<TRIPOS>BOND
     1    10     1    1
     2     1    68    1
     3    26     2    1
     4     2    81    1
     5    28     3    1
     6     3    82    1
     7     4    31    1
     8     4    83    1
     9     5    31    2
    10     6     7    1
    11     6     8    1
    12     6    13    1
    13     6    23    1
    14     7    10    1
    15     7    15    1
    16     7    24    1
    17     8     9    1
    18     8    21    1
    19     8    36    1
    20     9    12    1
    21     9    19    1
    22     9    27    1
    23    10    11    1
    24    10    22    1
    25    11    14    1
    26    11    20    1
    27    11    37    1
    28    12    16    1
    29    12    17    1
    30    12    38    1
    31    13    16    1
    32    13    39    1
    33    13    40    1
    34    14    18    1
    35    14    25    1
    36    14    31    1
    37    15    18    1
    38    15    41    1
    39    15    42    1
    40    16    43    1
    41    16    44    1
    42    17    26    1
    43    17    32    1
    44    17    33    1
    45    18    45    1
    46    18    46    1
    47    19    28    1
    48    19    47    1
    49    19    48    1
    50    20    29    1
    51    20    34    1
    52    20    49    1
    53    21    22    2
    54    21    50    1
    55    22    51    1
    56    23    52    1
    57    23    53    1
    58    23    54    1
    59    24    55    1
    60    24    56    1
    61    24    57    1
    62    25    30    1
    63    25    58    1
    64    25    59    1
    65    26    28    1
    66    26    60    1
    67    27    61    1
    68    27    62    1
    69    27    63    1
    70    28    64    1
    71    29    30    1
    72    29    35    1
    73    29    65    1
    74    30    66    1
    75    30    67    1
    76    32    69    1
    77    32    73    1
    78    32    74    1
    79    33    70    1
    80    33    71    1
    81    33    72    1
    82    34    75    1
    83    34    76    1
    84    34    77    1
    85    35    78    1
    86    35    79    1
    87    35    80    1
