@<TRIPOS>MOLECULE
IMPHY006199
 30 32 0 0 0
SMALL
GASTEIGER

@<TRIPOS>ATOM
      1 O           5.2619    1.1101    0.0000 O.3     1  UNL1       -0.4216
      2 O           2.8660    3.1101    0.0000 O.3     1  UNL1       -0.5059
      3 O           4.9889    2.8654    0.0000 O.2     1  UNL1       -0.2444
      4 O           7.5673   -2.9586    0.0000 O.3     1  UNL1       -0.5033
      5 O           8.9030   -1.4700    0.0000 O.3     1  UNL1       -0.5033
      6 C           3.7320    0.6101    0.0000 C.ar    1  UNL1        0.0349
      7 C           3.7320    1.6101    0.0000 C.ar    1  UNL1        0.1113
      8 C           4.6783    0.3054    0.0000 C.2     1  UNL1        0.1405
      9 C           4.9889   -0.6452    0.0000 C.2     1  UNL1       -0.0113
     10 C           2.8660    0.1101    0.0000 C.ar    1  UNL1       -0.0501
     11 C           2.8660    2.1101    0.0000 C.ar    1  UNL1        0.1315
     12 C           4.6783    1.9148    0.0000 C.2     1  UNL1        0.3487
     13 C           5.9674   -0.8514    0.0000 C.ar    1  UNL1       -0.0179
     14 C           2.0000    0.6101    0.0000 C.ar    1  UNL1       -0.0576
     15 C           2.0000    1.6101    0.0000 C.ar    1  UNL1       -0.0193
     16 C           6.2781   -1.8019    0.0000 C.ar    1  UNL1       -0.0093
     17 C           6.6353   -0.1071    0.0000 C.ar    1  UNL1       -0.0508
     18 C           7.2566   -2.0081    0.0000 C.ar    1  UNL1        0.1588
     19 C           7.6138   -0.3133    0.0000 C.ar    1  UNL1       -0.0160
     20 C           7.9244   -1.2638    0.0000 C.ar    1  UNL1        0.1582
     21 H           4.5749   -1.1066    0.0000 H       1  UNL1        0.0660
     22 H           2.8660   -0.5099    0.0000 H       1  UNL1        0.0625
     23 H           1.4631    0.3001    0.0000 H       1  UNL1        0.0619
     24 H           1.4631    1.9201    0.0000 H       1  UNL1        0.0654
     25 H           5.8640   -2.2634    0.0000 H       1  UNL1        0.0661
     26 H           6.4427    0.4823    0.0000 H       1  UNL1        0.0625
     27 H           8.0279    0.1482    0.0000 H       1  UNL1        0.0655
     28 H           2.3291    3.4201    0.0000 H       1  UNL1        0.2922
     29 H           7.1532   -3.4201    0.0000 H       1  UNL1        0.2923
     30 H           9.3170   -1.0086    0.0000 H       1  UNL1        0.2923
@<TRIPOS>BOND
     1     1     8    1
     2     1    12    1
     3     2    11    1
     4     2    28    1
     5     3    12    2
     6     4    18    1
     7     4    29    1
     8     5    20    1
     9     5    30    1
    10     6     7   ar
    11     6     8    1
    12     6    10   ar
    13     7    11   ar
    14     7    12    1
    15     8     9    2
    16     9    13    1
    17     9    21    1
    18    10    14   ar
    19    10    22    1
    20    11    15   ar
    21    13    16   ar
    22    13    17   ar
    23    14    15   ar
    24    14    23    1
    25    15    24    1
    26    16    18   ar
    27    16    25    1
    28    17    19   ar
    29    17    26    1
    30    18    20   ar
    31    19    20   ar
    32    19    27    1
