@<TRIPOS>MOLECULE
IMPHY003638
 42 43 0 0 0
SMALL
GASTEIGER

@<TRIPOS>ATOM
      1 O           6.3465   -1.7673    0.0000 O.2     1  UNL1       -0.2968
      2 C           5.4641    0.7673    0.0000 C.3     1  UNL1       -0.0200
      3 C           5.4641   -0.2327    0.0000 C.3     1  UNL1        0.0318
      4 C           4.5981   -0.7327    0.0000 C.3     1  UNL1       -0.0373
      5 C           3.7320   -0.2327    0.0000 C.3     1  UNL1       -0.0378
      6 C           4.5981    1.2673    0.0000 C.3     1  UNL1       -0.0465
      7 C           6.3580    1.3020    0.0000 C.3     1  UNL1       -0.0463
      8 C           3.7320    0.7673    0.0000 C.3     1  UNL1       -0.0494
      9 C           6.3580   -0.7674    0.0000 C.2     1  UNL1        0.1397
     10 C           5.4641    1.7673    0.0000 C.3     1  UNL1       -0.0587
     11 C           7.2641    0.7881    0.0000 C.3     1  UNL1       -0.0458
     12 C           5.4641   -1.2327    0.0000 C.3     1  UNL1       -0.0523
     13 C           2.8660   -0.7327    0.0000 C.3     1  UNL1       -0.0439
     14 C           7.2641   -0.2535    0.0000 C.3     1  UNL1        0.0064
     15 C           2.0000   -0.2327    0.0000 C.3     1  UNL1       -0.0624
     16 C           2.8660   -1.7327    0.0000 C.3     1  UNL1       -0.0624
     17 H           4.1996   -1.2076    0.0000 H       1  UNL1        0.0277
     18 H           4.9966   -1.2076    0.0000 H       1  UNL1        0.0277
     19 H           3.1951    0.0773    0.0000 H       1  UNL1        0.0304
     20 H           4.9966    1.7422    0.0000 H       1  UNL1        0.0271
     21 H           4.1996    1.7422    0.0000 H       1  UNL1        0.0271
     22 H           6.7517    1.7810    0.0000 H       1  UNL1        0.0271
     23 H           5.9534    1.7718    0.0000 H       1  UNL1        0.0271
     24 H           3.5200    1.3499    0.0000 H       1  UNL1        0.0268
     25 H           3.1215    0.6596    0.0000 H       1  UNL1        0.0268
     26 H           6.0841    1.7673    0.0000 H       1  UNL1        0.0235
     27 H           5.4641    2.3873    0.0000 H       1  UNL1        0.0235
     28 H           4.8441    1.7673    0.0000 H       1  UNL1        0.0235
     29 H           7.8750    0.6820    0.0000 H       1  UNL1        0.0269
     30 H           7.4732    1.3718    0.0000 H       1  UNL1        0.0269
     31 H           4.8441   -1.2327    0.0000 H       1  UNL1        0.0239
     32 H           5.4641   -1.8527    0.0000 H       1  UNL1        0.0239
     33 H           6.0841   -1.2327    0.0000 H       1  UNL1        0.0239
     34 H           3.4030   -1.0427    0.0000 H       1  UNL1        0.0298
     35 H           7.4732   -0.8372    0.0000 H       1  UNL1        0.0342
     36 H           7.8750   -0.1474    0.0000 H       1  UNL1        0.0342
     37 H           2.3100    0.3042    0.0000 H       1  UNL1        0.0232
     38 H           1.4631    0.0773    0.0000 H       1  UNL1        0.0232
     39 H           1.6900   -0.7696    0.0000 H       1  UNL1        0.0232
     40 H           2.2460   -1.7327    0.0000 H       1  UNL1        0.0232
     41 H           2.8660   -2.3527    0.0000 H       1  UNL1        0.0232
     42 H           3.4860   -1.7327    0.0000 H       1  UNL1        0.0232
@<TRIPOS>BOND
     1     1     9    2
     2     2     3    1
     3     2     6    1
     4     2     7    1
     5     2    10    1
     6     3     4    1
     7     3     9    1
     8     3    12    1
     9     4     5    1
    10     4    17    1
    11     4    18    1
    12     5     8    1
    13     5    13    1
    14     5    19    1
    15     6     8    1
    16     6    20    1
    17     6    21    1
    18     7    11    1
    19     7    22    1
    20     7    23    1
    21     8    24    1
    22     8    25    1
    23     9    14    1
    24    10    26    1
    25    10    27    1
    26    10    28    1
    27    11    14    1
    28    11    29    1
    29    11    30    1
    30    12    31    1
    31    12    32    1
    32    12    33    1
    33    13    15    1
    34    13    16    1
    35    13    34    1
    36    14    35    1
    37    14    36    1
    38    15    37    1
    39    15    38    1
    40    15    39    1
    41    16    40    1
    42    16    41    1
    43    16    42    1
