@<TRIPOS>MOLECULE
IMPHY000480
 29 32 0 0 0
SMALL
GASTEIGER

@<TRIPOS>ATOM
      1 C           1.5316    2.1489    0.0000 C.3     1  UNL1        0.0001
      2 C          -2.7183   -2.1248    0.0000 C.3     1  UNL1        0.0079
      3 C           1.2710   -2.4151    0.0000 C.3     1  UNL1        0.1212
      4 C          -1.6864   -0.9736    0.0000 C.3     1  UNL1        0.0038
      5 C           0.0000   -0.9736    0.0000 C.3     1  UNL1        0.0076
      6 C           1.6864    0.9736    0.0000 C.3     1  UNL1        0.0406
      7 C          -0.8432    1.4604    0.0000 C.3     1  UNL1        0.0440
      8 C          -3.3728    0.0000    0.0000 C.3     1  UNL1        0.1101
      9 C           0.8432    1.4604    0.0000 C.3     1  UNL1        0.0035
     10 C          -2.3626   -1.2185    0.0000 C.3     1  UNL1        0.0620
     11 C           0.3083   -2.2699    0.0000 C.2     1  UNL1        0.3178
     12 C           0.0000    0.9736    0.0000 C.3     1  UNL1        0.0104
     13 C          -2.5296   -0.4868    0.0000 C.3     1  UNL1        0.0216
     14 C           1.6864    0.0000    0.0000 C.3     1  UNL1        0.2086
     15 C          -1.6864    0.9736    0.0000 C.3     1  UNL1        0.1688
     16 C          -3.3728    0.9736    0.0000 C.2     1  UNL1        0.3169
     17 C          -1.6864   -1.5441    0.0000 C.2     1  UNL1        0.1899
     18 C          -1.0102   -1.2185    0.0000 C.3     1  UNL1        0.2256
     19 C          -0.8432   -0.4868    0.0000 C.3     1  UNL1        0.0575
     20 C           0.8432   -0.4868    0.0000 C.2     1  UNL1        0.1800
     21 C          -1.6864    0.0000    0.0000 C.3     1  UNL1        0.0420
     22 C           0.0000    0.0000    0.0000 C.3     1  UNL1        0.0580
     23 O          -0.2988   -3.0312    0.0000 O.2     1  UNL1       -0.2501
     24 O           2.6600    0.0000    0.0000 O.3     1  UNL1       -0.2151
     25 O          -4.2159    1.4604    0.0000 O.2     1  UNL1       -0.2501
     26 O          -1.6864   -2.5178    0.0000 O.2     1  UNL1       -0.2923
     27 O           0.8432   -1.4604    0.0000 O.2     1  UNL1       -0.2934
     28 O          -0.0474   -1.3636    0.0000 O.3     1  UNL1       -0.4446
     29 O          -2.5296    1.4604    0.0000 O.3     1  UNL1       -0.4523
@<TRIPOS>BOND
     1     1     9    1
     2     2    10    1
     3     3    11    1
     4     4    21    1
     5     5    22    1
     6     6     9    1
     7     6    14    1
     8     7    12    1
     9     7    15    1
    10     8    13    1
    11     8    16    1
    12     9    12    1
    13    10    13    1
    14    10    17    1
    15    11    23    2
    16    11    28    1
    17    12    22    1
    18    13    21    1
    19    14    20    1
    20    14    24    1
    21    15    21    1
    22    15    29    1
    23    16    25    2
    24    16    29    1
    25    17    18    1
    26    17    26    2
    27    18    19    1
    28    18    28    1
    29    19    21    1
    30    19    22    1
    31    20    22    1
    32    20    27    2
