@<TRIPOS>MOLECULE
IMPHY013392
 47 49 0 0 0
SMALL
GASTEIGER

@<TRIPOS>ATOM
      1 O           5.5301   -1.9879    0.0000 O.2     1  UNL1       -0.4618
      2 O           3.7817    1.0467    0.0000 O.3     1  UNL1       -0.4942
      3 O           8.1282   -1.4879    0.0000 O.3     1  UNL1       -0.4944
      4 O           8.1282    2.5121    0.0000 O.3     1  UNL1       -0.4914
      5 O           5.5301    1.0121    0.0000 O.2     1  UNL1       -0.2863
      6 O           2.0000   -2.0121    0.0000 O.3     1  UNL1       -0.4949
      7 O           9.8602    1.5121    0.0000 O.3     1  UNL1       -0.4913
      8 C           6.3961   -0.4879    0.0000 C.ar    1  UNL1        0.0680
      9 C           4.6641   -0.4879    0.0000 C.ar    1  UNL1        0.1063
     10 C           7.2622    0.0121    0.0000 C.ar    1  UNL1        0.0341
     11 C           5.5301    0.0121    0.0000 C.ar    1  UNL1        0.2038
     12 C           4.6641   -1.4879    0.0000 C.ar    1  UNL1        0.1454
     13 C           3.7702    0.0467    0.0000 C.ar    1  UNL1        0.1379
     14 C           8.1282   -0.4879    0.0000 C.ar    1  UNL1        0.1317
     15 C           7.2622    1.0121    0.0000 C.ar    1  UNL1       -0.0049
     16 C           6.3961   -1.4879    0.0000 C.ar    1  UNL1        0.1040
     17 C           3.7702   -2.0226    0.0000 C.ar    1  UNL1        0.0233
     18 C           8.1282    1.5121    0.0000 C.ar    1  UNL1        0.1623
     19 C           2.8641   -0.4671    0.0000 C.ar    1  UNL1        0.0227
     20 C           2.8641   -1.5087    0.0000 C.ar    1  UNL1        0.1271
     21 C           8.9942    0.0121    0.0000 C.ar    1  UNL1        0.0260
     22 C           8.9942    1.0121    0.0000 C.ar    1  UNL1        0.1650
     23 C           2.9215    1.5566    0.0000 C.3     1  UNL1        0.0788
     24 C           8.9942   -1.9879    0.0000 C.3     1  UNL1        0.0788
     25 C           8.9942    3.0121    0.0000 C.3     1  UNL1        0.0790
     26 C           2.0038   -3.0121    0.0000 C.3     1  UNL1        0.0788
     27 C          10.7263    1.0121    0.0000 C.3     1  UNL1        0.0790
     28 H           6.7252    1.3221    0.0000 H       1  UNL1        0.0663
     29 H           6.9331   -1.7979    0.0000 H       1  UNL1        0.1037
     30 H           3.7773   -2.6426    0.0000 H       1  UNL1        0.0691
     31 H           2.3284   -0.1550    0.0000 H       1  UNL1        0.0691
     32 H           9.5312   -0.2979    0.0000 H       1  UNL1        0.0692
     33 H           3.2377    2.0900    0.0000 H       1  UNL1        0.0660
     34 H           2.3882    1.8728    0.0000 H       1  UNL1        0.0660
     35 H           2.6054    1.0233    0.0000 H       1  UNL1        0.0660
     36 H           8.6842   -2.5249    0.0000 H       1  UNL1        0.0660
     37 H           9.5312   -2.2979    0.0000 H       1  UNL1        0.0660
     38 H           9.3042   -1.4510    0.0000 H       1  UNL1        0.0660
     39 H           9.3042    2.4751    0.0000 H       1  UNL1        0.0660
     40 H           9.5312    3.3221    0.0000 H       1  UNL1        0.0660
     41 H           8.6842    3.5490    0.0000 H       1  UNL1        0.0660
     42 H           1.3839   -3.0145    0.0000 H       1  UNL1        0.0660
     43 H           2.0062   -3.6321    0.0000 H       1  UNL1        0.0660
     44 H           2.6238   -3.0097    0.0000 H       1  UNL1        0.0660
     45 H          10.4163    0.4751    0.0000 H       1  UNL1        0.0660
     46 H          11.2632    0.7021    0.0000 H       1  UNL1        0.0660
     47 H          11.0363    1.5490    0.0000 H       1  UNL1        0.0660
@<TRIPOS>BOND
     1     1    12   ar
     2     1    16   ar
     3     2    13    1
     4     2    23    1
     5     3    14    1
     6     3    24    1
     7     4    18    1
     8     4    25    1
     9     5    11    2
    10     6    20    1
    11     6    26    1
    12     7    22    1
    13     7    27    1
    14     8    10    1
    15     8    11   ar
    16     8    16   ar
    17     9    11   ar
    18     9    12   ar
    19     9    13   ar
    20    10    14   ar
    21    10    15   ar
    22    12    17   ar
    23    13    19   ar
    24    14    21   ar
    25    15    18   ar
    26    15    28    1
    27    16    29    1
    28    17    20   ar
    29    17    30    1
    30    18    22   ar
    31    19    20   ar
    32    19    31    1
    33    21    22   ar
    34    21    32    1
    35    23    33    1
    36    23    34    1
    37    23    35    1
    38    24    36    1
    39    24    37    1
    40    24    38    1
    41    25    39    1
    42    25    40    1
    43    25    41    1
    44    26    42    1
    45    26    43    1
    46    26    44    1
    47    27    45    1
    48    27    46    1
    49    27    47    1
