@<TRIPOS>MOLECULE
IMPHY007089
 80 85 0 0 0
SMALL
GASTEIGER

@<TRIPOS>ATOM
      1 O           9.3042   -2.0697    0.0000 O.3     1  UNL1       -0.3753
      2 O          10.7038   -0.5153    0.0000 O.3     1  UNL1       -0.4552
      3 O           7.5596   -2.5737    0.0000 O.3     1  UNL1       -0.4677
      4 O           6.2860   -1.3999    0.0000 O.2     1  UNL1       -0.2504
      5 O          11.0574    1.1803    0.0000 O.2     1  UNL1       -0.2449
      6 O          14.6604    1.3136    0.0000 O.3     1  UNL1       -0.4913
      7 O          13.9533   -2.0776    0.0000 O.3     1  UNL1       -0.4913
      8 O          15.2858   -0.5862    0.0000 O.3     1  UNL1       -0.4885
      9 N           6.9654    2.1163    0.0000 N.3     1  UNL1       -0.2934
     10 N           4.5124    0.9988    0.0000 N.ar    1  UNL1       -0.3564
     11 C           7.6200    0.1532    0.0000 C.3     1  UNL1       -0.0197
     12 C           8.3170    0.9273    0.0000 C.3     1  UNL1       -0.0211
     13 C           6.6028    0.3776    0.0000 C.3     1  UNL1       -0.0278
     14 C           7.9393   -0.8837    0.0000 C.3     1  UNL1        0.0891
     15 C           6.2962    1.3731    0.0000 C.3     1  UNL1        0.0512
     16 C           7.9875    1.9154    0.0000 C.3     1  UNL1        0.0028
     17 C           9.3816    0.7181    0.0000 C.3     1  UNL1       -0.0089
     18 C           8.9988   -1.1175    0.0000 C.3     1  UNL1        0.1083
     19 C           9.7248   -0.3112    0.0000 C.3     1  UNL1        0.1304
     20 C           5.3181    1.5810    0.0000 C.ar    1  UNL1        0.0376
     21 C           6.6564    3.0673    0.0000 C.3     1  UNL1        0.0036
     22 C           5.6782    3.2752    0.0000 C.3     1  UNL1       -0.0125
     23 C           5.0091    2.5321    0.0000 C.ar    1  UNL1       -0.0164
     24 C           7.2616   -1.6191    0.0000 C.2     1  UNL1        0.3128
     25 C           4.0150    2.5295    0.0000 C.ar    1  UNL1        0.0032
     26 C           3.7086    1.5838    0.0000 C.ar    1  UNL1        0.0470
     27 C          10.2815   -2.2814    0.0000 C.3     1  UNL1        0.0370
     28 C           3.3334    3.3090    0.0000 C.ar    1  UNL1       -0.0523
     29 C          11.3700    0.2304    0.0000 C.2     1  UNL1        0.3398
     30 C           2.6994    1.3521    0.0000 C.ar    1  UNL1       -0.0378
     31 C           2.3191    3.1007    0.0000 C.ar    1  UNL1       -0.0611
     32 C           6.8820   -3.3090    0.0000 C.3     1  UNL1        0.0817
     33 C           2.0000    2.1156    0.0000 C.ar    1  UNL1       -0.0598
     34 C          12.3490    0.0263    0.0000 C.ar    1  UNL1        0.0661
     35 C          12.6617   -0.9236    0.0000 C.ar    1  UNL1       -0.0021
     36 C          13.0152    0.7720    0.0000 C.ar    1  UNL1       -0.0021
     37 C          13.9942    0.5678    0.0000 C.ar    1  UNL1        0.1660
     38 C          13.6406   -1.1277    0.0000 C.ar    1  UNL1        0.1660
     39 C          14.3069   -0.3820    0.0000 C.ar    1  UNL1        0.2035
     40 C          14.3478    2.2634    0.0000 C.3     1  UNL1        0.0790
     41 C          13.2870   -2.8233    0.0000 C.3     1  UNL1        0.0790
     42 C          15.9521    0.1596    0.0000 C.3     1  UNL1        0.0791
     43 H           7.0440   -0.4718    0.0000 H       1  UNL1        0.0313
     44 H           8.8784    1.5655    0.0000 H       1  UNL1        0.0317
     45 H           5.9878    0.2992    0.0000 H       1  UNL1        0.0287
     46 H           6.5748   -0.2417    0.0000 H       1  UNL1        0.0287
     47 H           7.3346   -0.7467    0.0000 H       1  UNL1        0.0443
     48 H           5.7226    0.7459    0.0000 H       1  UNL1        0.0527
     49 H           8.6005    2.0080    0.0000 H       1  UNL1        0.0429
     50 H           8.0011    2.5353    0.0000 H       1  UNL1        0.0429
     51 H           9.9946    0.8107    0.0000 H       1  UNL1        0.0305
     52 H           9.3953    1.3380    0.0000 H       1  UNL1        0.0305
     53 H           9.6050   -1.2476    0.0000 H       1  UNL1        0.0641
     54 H           9.9176   -0.9005    0.0000 H       1  UNL1        0.0760
     55 H           7.2703    3.1536    0.0000 H       1  UNL1        0.0430
     56 H           6.6780    3.6869    0.0000 H       1  UNL1        0.0430
     57 H           5.9105    3.8501    0.0000 H       1  UNL1        0.0326
     58 H           5.1524    3.6038    0.0000 H       1  UNL1        0.0326
     59 H           4.5113    0.3788    0.0000 H       1  UNL1        0.1656
     60 H          10.1503   -2.8874    0.0000 H       1  UNL1        0.0524
     61 H          10.8875   -2.4127    0.0000 H       1  UNL1        0.0524
     62 H          10.4128   -1.6755    0.0000 H       1  UNL1        0.0524
     63 H           3.5313    3.8966    0.0000 H       1  UNL1        0.0624
     64 H           2.5152    0.7601    0.0000 H       1  UNL1        0.0638
     65 H           1.9056    3.5626    0.0000 H       1  UNL1        0.0618
     66 H           6.4260   -2.8888    0.0000 H       1  UNL1        0.0661
     67 H           6.4618   -3.7649    0.0000 H       1  UNL1        0.0661
     68 H           7.3379   -3.7292    0.0000 H       1  UNL1        0.0661
     69 H           1.3942    1.9838    0.0000 H       1  UNL1        0.0618
     70 H          12.2486   -1.3859    0.0000 H       1  UNL1        0.0663
     71 H          12.8214    1.3609    0.0000 H       1  UNL1        0.0663
     72 H          14.9367    2.4573    0.0000 H       1  UNL1        0.0660
     73 H          14.1539    2.8523    0.0000 H       1  UNL1        0.0660
     74 H          13.7588    2.0696    0.0000 H       1  UNL1        0.0660
     75 H          12.8247   -2.4102    0.0000 H       1  UNL1        0.0660
     76 H          12.8739   -3.2857    0.0000 H       1  UNL1        0.0660
     77 H          13.7494   -3.2364    0.0000 H       1  UNL1        0.0660
     78 H          16.4144   -0.2535    0.0000 H       1  UNL1        0.0660
     79 H          16.3651    0.6219    0.0000 H       1  UNL1        0.0660
     80 H          15.4897    0.5726    0.0000 H       1  UNL1        0.0660
@<TRIPOS>BOND
     1    18     1    1
     2     1    27    1
     3    19     2    1
     4     2    29    1
     5     3    24    1
     6     3    32    1
     7     4    24    2
     8     5    29    2
     9     6    37    1
    10     6    40    1
    11     7    38    1
    12     7    41    1
    13     8    39    1
    14     8    42    1
    15     9    15    1
    16     9    16    1
    17     9    21    1
    18    10    20   ar
    19    10    26   ar
    20    10    59    1
    21    11    12    1
    22    11    13    1
    23    11    14    1
    24    11    43    1
    25    12    16    1
    26    12    17    1
    27    12    44    1
    28    13    15    1
    29    13    45    1
    30    13    46    1
    31    14    18    1
    32    14    24    1
    33    14    47    1
    34    15    20    1
    35    15    48    1
    36    16    49    1
    37    16    50    1
    38    17    19    1
    39    17    51    1
    40    17    52    1
    41    18    19    1
    42    18    53    1
    43    19    54    1
    44    20    23   ar
    45    21    22    1
    46    21    55    1
    47    21    56    1
    48    22    23    1
    49    22    57    1
    50    22    58    1
    51    23    25   ar
    52    25    26   ar
    53    25    28   ar
    54    26    30   ar
    55    27    60    1
    56    27    61    1
    57    27    62    1
    58    28    31   ar
    59    28    63    1
    60    29    34    1
    61    30    33   ar
    62    30    64    1
    63    31    33   ar
    64    31    65    1
    65    32    66    1
    66    32    67    1
    67    32    68    1
    68    33    69    1
    69    34    35   ar
    70    34    36   ar
    71    35    38   ar
    72    35    70    1
    73    36    37   ar
    74    36    71    1
    75    37    39   ar
    76    38    39   ar
    77    40    72    1
    78    40    73    1
    79    40    74    1
    80    41    75    1
    81    41    76    1
    82    41    77    1
    83    42    78    1
    84    42    79    1
    85    42    80    1
