@<TRIPOS>MOLECULE
IMPHY007934
 43 45 0 0 0
SMALL
GASTEIGER

@<TRIPOS>ATOM
      1 O           6.0682   -0.9938    0.0000 O.2     1  UNL1       -0.4506
      2 O           9.5984   -1.0179    0.0000 O.3     1  UNL1       -0.4946
      3 O           7.8167    2.0408    0.0000 O.3     1  UNL1       -0.5055
      4 O           6.0682    2.0062    0.0000 O.2     1  UNL1       -0.2863
      5 O           4.3198   -2.0284    0.0000 O.3     1  UNL1       -0.5009
      6 O           2.5381   -1.0179    0.0000 O.3     1  UNL1       -0.5032
      7 C           9.5984    1.0304    0.0000 C.3     1  UNL1        0.0148
      8 C           8.7343    0.5270    0.0000 C.ar    1  UNL1        0.0459
      9 C           7.8282    1.0409    0.0000 C.ar    1  UNL1        0.1387
     10 C           6.9343    0.5062    0.0000 C.ar    1  UNL1        0.1064
     11 C          10.1017    0.1663    0.0000 C.3     1  UNL1       -0.0521
     12 C           9.0950    1.8944    0.0000 C.3     1  UNL1       -0.0521
     13 C           8.7343   -0.5146    0.0000 C.ar    1  UNL1        0.1311
     14 C           6.9343   -0.4938    0.0000 C.ar    1  UNL1        0.1465
     15 C          10.4625    1.5337    0.0000 C.2     1  UNL1       -0.0809
     16 C           7.8282   -1.0284    0.0000 C.ar    1  UNL1        0.0236
     17 C           6.0682    1.0062    0.0000 C.ar    1  UNL1        0.2038
     18 C           5.2022    0.5062    0.0000 C.ar    1  UNL1        0.0686
     19 C           5.2022   -0.4938    0.0000 C.ar    1  UNL1        0.1841
     20 C           4.3083    1.0409    0.0000 C.ar    1  UNL1       -0.0437
     21 C           4.3083   -1.0284    0.0000 C.ar    1  UNL1        0.2021
     22 C          11.3304    1.0370    0.0000 C.2     1  UNL1       -0.1018
     23 C           3.4022   -0.5146    0.0000 C.ar    1  UNL1        0.1620
     24 C           3.4022    0.5270    0.0000 C.ar    1  UNL1       -0.0156
     25 C           9.5945   -2.0179    0.0000 C.3     1  UNL1        0.0788
     26 H           9.5660   -0.1458    0.0000 H       1  UNL1        0.0241
     27 H           9.6308    2.2065    0.0000 H       1  UNL1        0.0241
     28 H           8.7830    2.4302    0.0000 H       1  UNL1        0.0241
     29 H           8.5593    1.5824    0.0000 H       1  UNL1        0.0241
     30 H          10.4138   -0.3695    0.0000 H       1  UNL1        0.0241
     31 H          10.6375    0.4783    0.0000 H       1  UNL1        0.0241
     32 H          10.4601    2.1537    0.0000 H       1  UNL1        0.0575
     33 H           7.8210   -1.6484    0.0000 H       1  UNL1        0.0691
     34 H           4.3154    1.6608    0.0000 H       1  UNL1        0.0627
     35 H           7.2762    2.3446    0.0000 H       1  UNL1        0.2922
     36 H          11.3328    0.4170    0.0000 H       1  UNL1        0.0532
     37 H          11.8662    1.3491    0.0000 H       1  UNL1        0.0532
     38 H           2.8665    0.8391    0.0000 H       1  UNL1        0.0655
     39 H           8.9745   -2.0155    0.0000 H       1  UNL1        0.0660
     40 H           9.5921   -2.6379    0.0000 H       1  UNL1        0.0660
     41 H          10.2145   -2.0203    0.0000 H       1  UNL1        0.0660
     42 H           3.7865   -2.3446    0.0000 H       1  UNL1        0.2924
     43 H           2.0000   -0.7100    0.0000 H       1  UNL1        0.2923
@<TRIPOS>BOND
     1     1    14   ar
     2     1    19   ar
     3     2    13    1
     4     2    25    1
     5     3     9    1
     6     3    35    1
     7     4    17    2
     8     5    21    1
     9     5    42    1
    10     6    23    1
    11     6    43    1
    12     7     8    1
    13     7    11    1
    14     7    12    1
    15     7    15    1
    16     8     9   ar
    17     8    13   ar
    18     9    10   ar
    19    10    14   ar
    20    10    17   ar
    21    11    26    1
    22    11    30    1
    23    11    31    1
    24    12    27    1
    25    12    28    1
    26    12    29    1
    27    13    16   ar
    28    14    16   ar
    29    15    22    2
    30    15    32    1
    31    16    33    1
    32    17    18   ar
    33    18    19   ar
    34    18    20   ar
    35    19    21   ar
    36    20    24   ar
    37    20    34    1
    38    21    23   ar
    39    22    36    1
    40    22    37    1
    41    23    24   ar
    42    24    38    1
    43    25    39    1
    44    25    40    1
    45    25    41    1
