@<TRIPOS>MOLECULE
IMPHY000729
 137 144 0 0 0
SMALL
GASTEIGER

@<TRIPOS>ATOM
      1 O          10.8882    3.0909    0.0000 O.3     1  UNL1       -0.3450
      2 O           9.3592    4.3229    0.0000 O.3     1  UNL1       -0.3642
      3 O           9.4651   -5.1532    0.0000 O.3     1  UNL1       -0.3451
      4 O           7.7331   -5.1532    0.0000 O.3     1  UNL1       -0.3405
      5 O          13.5227    6.1903    0.0000 O.3     1  UNL1       -0.3484
      6 O           9.4651   -7.1532    0.0000 O.3     1  UNL1       -0.3841
      7 O           7.7331   -8.1532    0.0000 O.3     1  UNL1       -0.3864
      8 O           6.0010   -7.1532    0.0000 O.3     1  UNL1       -0.3401
      9 O          15.0253    5.3287    0.0000 O.3     1  UNL1       -0.3405
     10 O           6.0010   -4.1532    0.0000 O.3     1  UNL1       -0.3924
     11 O          14.5176    7.9253    0.0000 O.3     1  UNL1       -0.3841
     12 O           5.1350   -5.6532    0.0000 O.3     1  UNL1       -0.3431
     13 O          16.5176    7.9313    0.0000 O.3     1  UNL1       -0.3864
     14 O          17.5227    6.2022    0.0000 O.3     1  UNL1       -0.3865
     15 O           4.2690   -8.1532    0.0000 O.3     1  UNL1       -0.3841
     16 O          17.5279    4.4702    0.0000 O.3     1  UNL1       -0.3924
     17 O           2.5369   -7.1532    0.0000 O.3     1  UNL1       -0.3864
     18 O           2.5369   -5.1532    0.0000 O.3     1  UNL1       -0.3866
     19 C           9.4944    1.0437    0.0000 C.3     1  UNL1       -0.0233
     20 C          10.3623    0.5471    0.0000 C.3     1  UNL1       -0.0295
     21 C           9.6999    2.0163    0.0000 C.3     1  UNL1       -0.0015
     22 C          10.3662   -0.4529    0.0000 C.3     1  UNL1       -0.0306
     23 C          10.6882    2.1232    0.0000 C.3     1  UNL1        0.0660
     24 C           9.5021   -0.9563    0.0000 C.3     1  UNL1       -0.0285
     25 C          11.0968    1.2170    0.0000 C.3     1  UNL1       -0.0226
     26 C           8.6303    0.5404    0.0000 C.3     1  UNL1       -0.0467
     27 C           9.2976    2.9189    0.0000 C.3     1  UNL1        0.0158
     28 C           8.6342   -0.4596    0.0000 C.3     1  UNL1       -0.0486
     29 C           9.4901   -1.9978    0.0000 C.3     1  UNL1       -0.0078
     30 C          10.0305    3.5817    0.0000 C.3     1  UNL1        0.1704
     31 C           8.6264    1.5404    0.0000 C.3     1  UNL1       -0.0590
     32 C          11.2781   -0.9563    0.0000 C.3     1  UNL1       -0.0311
     33 C          10.3901   -2.5221    0.0000 C.2     1  UNL1       -0.0648
     34 C           8.5402   -2.5221    0.0000 C.3     1  UNL1       -0.0413
     35 C          11.2902   -1.9978    0.0000 C.2     1  UNL1       -0.0839
     36 C           8.3192    3.1256    0.0000 C.3     1  UNL1       -0.0572
     37 C           8.6260   -1.4945    0.0000 C.3     1  UNL1       -0.0556
     38 C          10.5279    4.4492    0.0000 C.3     1  UNL1        0.0018
     39 C          10.4027   -3.6070    0.0000 C.3     1  UNL1       -0.0047
     40 C           8.5276   -3.6070    0.0000 C.3     1  UNL1       -0.0254
     41 C           9.4651   -4.1532    0.0000 C.3     1  UNL1        0.0655
     42 C          11.5279    4.4522    0.0000 C.3     1  UNL1       -0.0435
     43 C          12.0253    5.3198    0.0000 C.3     1  UNL1       -0.0201
     44 C           8.5991   -5.6532    0.0000 C.3     1  UNL1        0.1882
     45 C          13.0253    5.3227    0.0000 C.3     1  UNL1        0.0533
     46 C          11.5228    6.1843    0.0000 C.3     1  UNL1       -0.0603
     47 C           8.5991   -6.6532    0.0000 C.3     1  UNL1        0.1341
     48 C           7.7331   -7.1532    0.0000 C.3     1  UNL1        0.1144
     49 C           6.8671   -5.6532    0.0000 C.3     1  UNL1        0.1134
     50 C           6.8671   -6.6532    0.0000 C.3     1  UNL1        0.1184
     51 C          14.5227    6.1932    0.0000 C.3     1  UNL1        0.1879
     52 C           6.0010   -5.1532    0.0000 C.3     1  UNL1        0.0730
     53 C          15.0202    7.0608    0.0000 C.3     1  UNL1        0.1341
     54 C           5.1350   -6.6532    0.0000 C.3     1  UNL1        0.1883
     55 C          16.0201    7.0638    0.0000 C.3     1  UNL1        0.1141
     56 C          16.0253    5.3317    0.0000 C.3     1  UNL1        0.1130
     57 C          16.5227    6.1992    0.0000 C.3     1  UNL1        0.1119
     58 C           4.2690   -7.1532    0.0000 C.3     1  UNL1        0.1341
     59 C          16.5279    4.4672    0.0000 C.3     1  UNL1        0.0730
     60 C           3.4030   -6.6532    0.0000 C.3     1  UNL1        0.1140
     61 C           4.2690   -5.1532    0.0000 C.3     1  UNL1        0.0873
     62 C           3.4030   -5.6532    0.0000 C.3     1  UNL1        0.1095
     63 C           4.2690   -4.1532    0.0000 C.3     1  UNL1       -0.0361
     64 H          11.1406    0.2053    0.0000 H       1  UNL1        0.0310
     65 H           8.8546    1.9268    0.0000 H       1  UNL1        0.0335
     66 H          11.0974   -0.0194    0.0000 H       1  UNL1        0.0310
     67 H          11.5330    2.2164    0.0000 H       1  UNL1        0.0600
     68 H          10.2366   -1.3841    0.0000 H       1  UNL1        0.0312
     69 H          11.4642    0.7175    0.0000 H       1  UNL1        0.0293
     70 H          11.6321    1.5298    0.0000 H       1  UNL1        0.0293
     71 H           8.4160    1.1222    0.0000 H       1  UNL1        0.0271
     72 H           8.0201    0.4304    0.0000 H       1  UNL1        0.0271
     73 H           8.9078    2.4368    0.0000 H       1  UNL1        0.0354
     74 H           8.0232   -0.3543    0.0000 H       1  UNL1        0.0268
     75 H           8.4244   -1.0430    0.0000 H       1  UNL1        0.0268
     76 H           8.9344    2.0785    0.0000 H       1  UNL1        0.0235
     77 H           8.0883    1.8483    0.0000 H       1  UNL1        0.0235
     78 H           8.3185    1.0022    0.0000 H       1  UNL1        0.0235
     79 H          11.8902   -1.0553    0.0000 H       1  UNL1        0.0310
     80 H          11.4804   -0.3702    0.0000 H       1  UNL1        0.0310
     81 H           8.3379   -1.9360    0.0000 H       1  UNL1        0.0274
     82 H           7.9281   -2.6211    0.0000 H       1  UNL1        0.0274
     83 H          11.8295   -2.3037    0.0000 H       1  UNL1        0.0572
     84 H           8.4473    3.7322    0.0000 H       1  UNL1        0.0234
     85 H           7.7125    3.2538    0.0000 H       1  UNL1        0.0234
     86 H           8.1910    2.5190    0.0000 H       1  UNL1        0.0234
     87 H           8.9380   -0.9588    0.0000 H       1  UNL1        0.0238
     88 H           8.0902   -1.1824    0.0000 H       1  UNL1        0.0238
     89 H           8.3139   -2.0302    0.0000 H       1  UNL1        0.0238
     90 H          10.6338    5.0602    0.0000 H       1  UNL1        0.0317
     91 H           9.9447    4.6596    0.0000 H       1  UNL1        0.0317
     92 H          10.6185   -4.1883    0.0000 H       1  UNL1        0.0335
     93 H          11.0123   -3.4939    0.0000 H       1  UNL1        0.0335
     94 H           7.9180   -3.4939    0.0000 H       1  UNL1        0.0290
     95 H           8.3118   -4.1883    0.0000 H       1  UNL1        0.0290
     96 H          10.0027   -4.4621    0.0000 H       1  UNL1        0.0600
     97 H           9.5490    4.9131    0.0000 H       1  UNL1        0.2128
     98 H          11.4221    3.8413    0.0000 H       1  UNL1        0.0270
     99 H          12.1112    4.2419    0.0000 H       1  UNL1        0.0270
    100 H          11.4053    5.3179    0.0000 H       1  UNL1        0.0320
    101 H           8.5991   -5.0332    0.0000 H       1  UNL1        0.0937
    102 H          12.9195    4.7118    0.0000 H       1  UNL1        0.0563
    103 H          13.6086    5.1124    0.0000 H       1  UNL1        0.0563
    104 H          12.0588    6.4959    0.0000 H       1  UNL1        0.0233
    105 H          11.2112    6.7203    0.0000 H       1  UNL1        0.0233
    106 H          10.9868    5.8727    0.0000 H       1  UNL1        0.0233
    107 H           8.5991   -7.2732    0.0000 H       1  UNL1        0.0671
    108 H           7.1962   -7.4632    0.0000 H       1  UNL1        0.0648
    109 H           6.8671   -5.0332    0.0000 H       1  UNL1        0.0647
    110 H           6.3301   -6.3431    0.0000 H       1  UNL1        0.0651
    111 H          10.0021   -6.8432    0.0000 H       1  UNL1        0.2101
    112 H          14.2144    5.6554    0.0000 H       1  UNL1        0.0937
    113 H           5.3905   -5.0455    0.0000 H       1  UNL1        0.0584
    114 H           5.7890   -5.7358    0.0000 H       1  UNL1        0.0584
    115 H           8.2700   -8.4632    0.0000 H       1  UNL1        0.2100
    116 H          14.4002    7.0589    0.0000 H       1  UNL1        0.0671
    117 H           5.1350   -7.2732    0.0000 H       1  UNL1        0.0938
    118 H          16.6401    7.0656    0.0000 H       1  UNL1        0.0648
    119 H          15.7169    4.7938    0.0000 H       1  UNL1        0.0647
    120 H          16.8343    5.6632    0.0000 H       1  UNL1        0.0647
    121 H           5.4641   -3.8432    0.0000 H       1  UNL1        0.2095
    122 H           3.7320   -7.4632    0.0000 H       1  UNL1        0.0671
    123 H          14.8260    8.4632    0.0000 H       1  UNL1        0.2101
    124 H          15.9459    4.2534    0.0000 H       1  UNL1        0.0584
    125 H          16.6374    3.8569    0.0000 H       1  UNL1        0.0584
    126 H           2.8660   -6.3431    0.0000 H       1  UNL1        0.0648
    127 H           4.8059   -4.8431    0.0000 H       1  UNL1        0.0621
    128 H          17.1376    7.9331    0.0000 H       1  UNL1        0.2100
    129 H           3.4030   -5.0332    0.0000 H       1  UNL1        0.0646
    130 H          17.8311    6.7401    0.0000 H       1  UNL1        0.2100
    131 H           3.7320   -8.4632    0.0000 H       1  UNL1        0.2101
    132 H           4.8890   -4.1532    0.0000 H       1  UNL1        0.0255
    133 H           4.2690   -3.5332    0.0000 H       1  UNL1        0.0255
    134 H           3.6490   -4.1532    0.0000 H       1  UNL1        0.0255
    135 H          17.8395    3.9342    0.0000 H       1  UNL1        0.2095
    136 H           2.0000   -6.8432    0.0000 H       1  UNL1        0.2100
    137 H           2.5369   -4.5332    0.0000 H       1  UNL1        0.2100
@<TRIPOS>BOND
     1     1    23    1
     2     1    30    1
     3    30     2    1
     4     2    97    1
     5    41     3    1
     6    44     3    1
     7     4    44    1
     8     4    49    1
     9     5    45    1
    10    51     5    1
    11    47     6    1
    12     6   111    1
    13    48     7    1
    14     7   115    1
    15    50     8    1
    16    54     8    1
    17     9    51    1
    18     9    56    1
    19    10    52    1
    20    10   121    1
    21    53    11    1
    22    11   123    1
    23    12    54    1
    24    12    61    1
    25    55    13    1
    26    13   128    1
    27    57    14    1
    28    14   130    1
    29    58    15    1
    30    15   131    1
    31    16    59    1
    32    16   135    1
    33    60    17    1
    34    17   136    1
    35    62    18    1
    36    18   137    1
    37    19    20    1
    38    19    21    1
    39    19    26    1
    40    19    31    1
    41    20    22    1
    42    20    25    1
    43    20    64    1
    44    21    23    1
    45    21    27    1
    46    21    65    1
    47    22    24    1
    48    22    32    1
    49    22    66    1
    50    23    25    1
    51    23    67    1
    52    24    28    1
    53    24    29    1
    54    24    68    1
    55    25    69    1
    56    25    70    1
    57    26    28    1
    58    26    71    1
    59    26    72    1
    60    27    30    1
    61    27    36    1
    62    27    73    1
    63    28    74    1
    64    28    75    1
    65    29    33    1
    66    29    34    1
    67    29    37    1
    68    30    38    1
    69    31    76    1
    70    31    77    1
    71    31    78    1
    72    32    35    1
    73    32    79    1
    74    32    80    1
    75    33    35    2
    76    33    39    1
    77    34    40    1
    78    34    81    1
    79    34    82    1
    80    35    83    1
    81    36    84    1
    82    36    85    1
    83    36    86    1
    84    37    87    1
    85    37    88    1
    86    37    89    1
    87    38    42    1
    88    38    90    1
    89    38    91    1
    90    39    41    1
    91    39    92    1
    92    39    93    1
    93    40    41    1
    94    40    94    1
    95    40    95    1
    96    41    96    1
    97    42    43    1
    98    42    98    1
    99    42    99    1
   100    43    45    1
   101    43    46    1
   102    43   100    1
   103    44    47    1
   104    44   101    1
   105    45   102    1
   106    45   103    1
   107    46   104    1
   108    46   105    1
   109    46   106    1
   110    47    48    1
   111    47   107    1
   112    48    50    1
   113    48   108    1
   114    49    50    1
   115    49    52    1
   116    49   109    1
   117    50   110    1
   118    51    53    1
   119    51   112    1
   120    52   113    1
   121    52   114    1
   122    53    55    1
   123    53   116    1
   124    54    58    1
   125    54   117    1
   126    55    57    1
   127    55   118    1
   128    56    57    1
   129    56    59    1
   130    56   119    1
   131    57   120    1
   132    58    60    1
   133    58   122    1
   134    59   124    1
   135    59   125    1
   136    60    62    1
   137    60   126    1
   138    61    62    1
   139    61    63    1
   140    61   127    1
   141    62   129    1
   142    63   132    1
   143    63   133    1
   144    63   134    1
