@<TRIPOS>MOLECULE
IMPHY014499
 42 44 0 0 0
SMALL
GASTEIGER

@<TRIPOS>ATOM
      1 O           3.7230   -0.6912    0.0000 O.3     1  UNL1       -0.4570
      2 O           5.4378   -2.5864    0.0000 O.3     1  UNL1       -0.3884
      3 O           7.3840    1.4149    0.0000 O.3     1  UNL1       -0.3885
      4 O           4.5447    2.4742    0.0000 O.3     1  UNL1       -0.3910
      5 O           2.0000   -0.2590    0.0000 O.2     1  UNL1       -0.2453
      6 C           5.4786   -0.6174    0.0000 C.3     1  UNL1        0.0308
      7 C           6.3796   -0.1835    0.0000 C.3     1  UNL1       -0.0034
      8 C           5.6146   -1.6022    0.0000 C.3     1  UNL1        0.0699
      9 C           4.5777   -0.1835    0.0000 C.3     1  UNL1        0.1184
     10 C           6.6021    0.7914    0.0000 C.3     1  UNL1        0.0689
     11 C           7.0647   -0.9038    0.0000 C.3     1  UNL1       -0.0446
     12 C           6.5929   -1.7788    0.0000 C.3     1  UNL1       -0.0235
     13 C           4.3551    0.7914    0.0000 C.3     1  UNL1        0.0538
     14 C           5.9786    1.5732    0.0000 C.3     1  UNL1        0.0028
     15 C           4.9786    1.5732    0.0000 C.3     1  UNL1        0.0682
     16 C           4.6239   -1.7381    0.0000 C.3     1  UNL1       -0.0357
     17 C           7.5770    0.5689    0.0000 C.3     1  UNL1       -0.0357
     18 C           3.3648    0.8779    0.0000 C.2     1  UNL1        0.0386
     19 C           2.9749   -0.0365    0.0000 C.2     1  UNL1        0.3354
     20 C           2.8504    1.7355    0.0000 C.2     1  UNL1       -0.0882
     21 H           4.9775   -0.9825    0.0000 H       1  UNL1        0.0368
     22 H           6.9775   -0.0194    0.0000 H       1  UNL1        0.0333
     23 H           4.6047   -0.8029    0.0000 H       1  UNL1        0.0745
     24 H           7.5765   -1.2538    0.0000 H       1  UNL1        0.0270
     25 H           7.4666   -0.4317    0.0000 H       1  UNL1        0.0270
     26 H           6.4192   -2.3740    0.0000 H       1  UNL1        0.0293
     27 H           7.1665   -2.0141    0.0000 H       1  UNL1        0.0293
     28 H           4.9596    0.6534    0.0000 H       1  UNL1        0.0412
     29 H           6.5372    1.8422    0.0000 H       1  UNL1        0.0318
     30 H           5.8407    2.1777    0.0000 H       1  UNL1        0.0318
     31 H           4.3625    1.6426    0.0000 H       1  UNL1        0.0601
     32 H           4.5396   -1.1239    0.0000 H       1  UNL1        0.0257
     33 H           4.0097   -1.8224    0.0000 H       1  UNL1        0.0257
     34 H           4.7082   -2.3523    0.0000 H       1  UNL1        0.0257
     35 H           7.4391   -0.0356    0.0000 H       1  UNL1        0.0257
     36 H           8.1815    0.4309    0.0000 H       1  UNL1        0.0257
     37 H           7.7150    1.1733    0.0000 H       1  UNL1        0.0257
     38 H           5.9114   -2.9865    0.0000 H       1  UNL1        0.2102
     39 H           7.2916    2.0280    0.0000 H       1  UNL1        0.2102
     40 H           4.8940    2.9865    0.0000 H       1  UNL1        0.2098
     41 H           3.1514    2.2775    0.0000 H       1  UNL1        0.0540
     42 H           2.2305    1.7251    0.0000 H       1  UNL1        0.0540
@<TRIPOS>BOND
     1     1     9    1
     2     1    19    1
     3     2     8    1
     4     2    38    1
     5     3    10    1
     6     3    39    1
     7     4    15    1
     8     4    40    1
     9     5    19    2
    10     6     7    1
    11     6     8    1
    12     6     9    1
    13     6    21    1
    14     7    10    1
    15     7    11    1
    16     7    22    1
    17     8    12    1
    18     8    16    1
    19     9    13    1
    20     9    23    1
    21    10    14    1
    22    10    17    1
    23    11    12    1
    24    11    24    1
    25    11    25    1
    26    12    26    1
    27    12    27    1
    28    13    15    1
    29    13    18    1
    30    13    28    1
    31    14    15    1
    32    14    29    1
    33    14    30    1
    34    15    31    1
    35    16    32    1
    36    16    33    1
    37    16    34    1
    38    17    35    1
    39    17    36    1
    40    17    37    1
    41    18    19    1
    42    18    20    2
    43    20    41    1
    44    20    42    1
