@<TRIPOS>MOLECULE
IMPHY007350
 19 18 0 0 0
SMALL
GASTEIGER

@<TRIPOS>ATOM
      1 S           2.8660   -0.5000    0.0000 S.3     1  UNL1       -0.1641
      2 N           8.0622    0.5000    0.0000 N.1     1  UNL1       -0.1966
      3 C           4.5981   -0.5000    0.0000 C.3     1  UNL1       -0.0431
      4 C           5.4641    0.0000    0.0000 C.3     1  UNL1       -0.0395
      5 C           3.7320    0.0000    0.0000 C.3     1  UNL1       -0.0066
      6 C           6.3301   -0.5000    0.0000 C.3     1  UNL1        0.0348
      7 C           2.0000    0.0000    0.0000 C.3     1  UNL1       -0.0181
      8 C           7.1962    0.0000    0.0000 C.1     1  UNL1        0.0625
      9 H           4.1996   -0.9749    0.0000 H       1  UNL1        0.0273
     10 H           4.9966   -0.9749    0.0000 H       1  UNL1        0.0273
     11 H           5.8626    0.4749    0.0000 H       1  UNL1        0.0275
     12 H           5.0656    0.4749    0.0000 H       1  UNL1        0.0275
     13 H           4.1306    0.4749    0.0000 H       1  UNL1        0.0376
     14 H           3.3335    0.4749    0.0000 H       1  UNL1        0.0376
     15 H           5.9316   -0.9749    0.0000 H       1  UNL1        0.0418
     16 H           6.7287   -0.9749    0.0000 H       1  UNL1        0.0418
     17 H           2.3100    0.5369    0.0000 H       1  UNL1        0.0340
     18 H           1.4631    0.3100    0.0000 H       1  UNL1        0.0340
     19 H           1.6900   -0.5369    0.0000 H       1  UNL1        0.0340
@<TRIPOS>BOND
     1     1     5    1
     2     1     7    1
     3     2     8    3
     4     3     4    1
     5     3     5    1
     6     3     9    1
     7     3    10    1
     8     4     6    1
     9     4    11    1
    10     4    12    1
    11     5    13    1
    12     5    14    1
    13     6     8    1
    14     6    15    1
    15     6    16    1
    16     7    17    1
    17     7    18    1
    18     7    19    1
