@<TRIPOS>MOLECULE
IMPHY013740
 34 35 0 0 0
SMALL
GASTEIGER

@<TRIPOS>ATOM
      1 P           6.8909   -3.1217    0.0000 P.3     1  UNL1        0.4724
      2 O           5.0298   -0.6571    0.0000 O.3     1  UNL1       -0.3456
      3 O           3.1330   -2.4172    0.0000 O.3     1  UNL1       -0.3864
      4 O           2.4608   -0.3481    0.0000 O.3     1  UNL1       -0.3847
      5 O           6.3031   -2.3126    0.0000 O.3     1  UNL1       -0.2841
      6 O           5.9529    0.9307    0.0000 O.2     1  UNL1       -0.2464
      7 O           7.4787   -3.9307    0.0000 O.3     1  UNL1       -0.3026
      8 O           7.6999   -2.5339    0.0000 O.3     1  UNL1       -0.3026
      9 O           6.0819   -3.7094    0.0000 O.2     1  UNL1       -0.2275
     10 O           4.2208    3.9307    0.0000 O.2     1  UNL1       -0.2677
     11 N           4.2208    0.9307    0.0000 N.ar    1  UNL1       -0.2715
     12 N           5.0868    2.4307    0.0000 N.ar    1  UNL1       -0.2749
     13 C           3.7208   -1.6082    0.0000 C.3     1  UNL1        0.1135
     14 C           3.4118   -0.6571    0.0000 C.3     1  UNL1        0.1286
     15 C           4.7208   -1.6082    0.0000 C.3     1  UNL1        0.1134
     16 C           4.2208   -0.0693    0.0000 C.3     1  UNL1        0.1679
     17 C           5.3086   -2.4172    0.0000 C.3     1  UNL1        0.0878
     18 C           5.0868    1.4307    0.0000 C.ar    1  UNL1        0.3314
     19 C           3.3548    1.4307    0.0000 C.ar    1  UNL1        0.0171
     20 C           3.3548    2.4307    0.0000 C.ar    1  UNL1        0.0192
     21 C           4.2208    2.9307    0.0000 C.ar    1  UNL1        0.2539
     22 H           3.1085   -1.5112    0.0000 H       1  UNL1        0.0647
     23 H           2.9734   -1.0955    0.0000 H       1  UNL1        0.0665
     24 H           5.3332   -1.5112    0.0000 H       1  UNL1        0.0647
     25 H           3.6684    0.2122    0.0000 H       1  UNL1        0.0867
     26 H           4.7514   -2.6890    0.0000 H       1  UNL1        0.0592
     27 H           5.4795   -3.0132    0.0000 H       1  UNL1        0.0592
     28 H           3.3852   -2.9836    0.0000 H       1  UNL1        0.2100
     29 H           2.0000   -0.7629    0.0000 H       1  UNL1        0.2101
     30 H           2.8179    1.1207    0.0000 H       1  UNL1        0.0813
     31 H           5.6238    2.7407    0.0000 H       1  UNL1        0.1734
     32 H           2.8179    2.7407    0.0000 H       1  UNL1        0.0686
     33 H           8.0953   -3.8659    0.0000 H       1  UNL1        0.2220
     34 H           7.6351   -1.9173    0.0000 H       1  UNL1        0.2220
@<TRIPOS>BOND
     1     1     5    1
     2     1     7    1
     3     1     8    1
     4     1     9    2
     5     2    15    1
     6     2    16    1
     7    13     3    1
     8     3    28    1
     9    14     4    1
    10     4    29    1
    11     5    17    1
    12     6    18    2
    13     7    33    1
    14     8    34    1
    15    10    21    2
    16    16    11    1
    17    11    18   ar
    18    11    19   ar
    19    12    18   ar
    20    12    21   ar
    21    12    31    1
    22    13    14    1
    23    13    15    1
    24    13    22    1
    25    14    16    1
    26    14    23    1
    27    15    17    1
    28    15    24    1
    29    16    25    1
    30    17    26    1
    31    17    27    1
    32    19    20   ar
    33    19    30    1
    34    20    21   ar
    35    20    32    1
