@<TRIPOS>MOLECULE
IMPHY009384
 21 21 0 0 0
SMALL
GASTEIGER

@<TRIPOS>ATOM
      1 O           3.6942    0.3423    0.0000 O.3     1  UNL1       -0.3724
      2 O           6.1974   -0.6056    0.0000 O.2     1  UNL1       -0.4548
      3 O           8.7006    0.3423    0.0000 O.2     1  UNL1       -0.2924
      4 C           4.4374   -0.3268    0.0000 C.3     1  UNL1        0.1053
      5 C           5.3884   -0.0178    0.0000 C.ar    1  UNL1        0.1313
      6 C           5.6974    0.9333    0.0000 C.ar    1  UNL1       -0.0177
      7 C           2.7431    0.0333    0.0000 C.3     1  UNL1        0.0454
      8 C           7.0064   -0.0178    0.0000 C.ar    1  UNL1        0.1672
      9 C           6.6974    0.9333    0.0000 C.ar    1  UNL1       -0.0129
     10 C           2.0000    0.7024    0.0000 C.3     1  UNL1       -0.0416
     11 C           7.9575   -0.3268    0.0000 C.2     1  UNL1        0.1851
     12 H           3.9488   -0.7085    0.0000 H       1  UNL1        0.0641
     13 H           4.7284   -0.8742    0.0000 H       1  UNL1        0.0641
     14 H           2.2546   -0.3484    0.0000 H       1  UNL1        0.0557
     15 H           3.0342   -0.5141    0.0000 H       1  UNL1        0.0557
     16 H           5.3330    1.4348    0.0000 H       1  UNL1        0.0653
     17 H           7.0618    1.4348    0.0000 H       1  UNL1        0.0656
     18 H           2.4149    1.1632    0.0000 H       1  UNL1        0.0252
     19 H           1.5392    1.1173    0.0000 H       1  UNL1        0.0252
     20 H           1.5851    0.2417    0.0000 H       1  UNL1        0.0252
     21 H           8.0864   -0.9333    0.0000 H       1  UNL1        0.1114
@<TRIPOS>BOND
     1     1     4    1
     2     1     7    1
     3     2     5   ar
     4     2     8   ar
     5     3    11    2
     6     4     5    1
     7     4    12    1
     8     4    13    1
     9     5     6   ar
    10     6     9   ar
    11     6    16    1
    12     7    10    1
    13     7    14    1
    14     7    15    1
    15     8     9   ar
    16     8    11    1
    17     9    17    1
    18    10    18    1
    19    10    19    1
    20    10    20    1
    21    11    21    1
