@<TRIPOS>MOLECULE
IMPHY011762
 23 23 0 0 0
SMALL
GASTEIGER

@<TRIPOS>ATOM
      1 O           2.8660   -2.3100    0.0000 O.3     1  UNL1       -0.4951
      2 C           2.8660    0.6900    0.0000 C.ar    1  UNL1       -0.0251
      3 C           2.0000    0.1900    0.0000 C.ar    1  UNL1       -0.0511
      4 C           3.7320    0.1900    0.0000 C.ar    1  UNL1       -0.0511
      5 C           2.8660   -1.3100    0.0000 C.ar    1  UNL1        0.1201
      6 C           2.0000   -0.8100    0.0000 C.ar    1  UNL1       -0.0194
      7 C           3.7320   -0.8100    0.0000 C.ar    1  UNL1       -0.0194
      8 C           2.8660    1.6900    0.0000 C.2     1  UNL1       -0.0588
      9 C           3.7320    2.1900    0.0000 C.2     1  UNL1       -0.0866
     10 C           4.5981    1.6900    0.0000 C.3     1  UNL1       -0.0465
     11 C           2.0000   -2.8100    0.0000 C.3     1  UNL1        0.0788
     12 H           1.4631    0.5000    0.0000 H       1  UNL1        0.0625
     13 H           4.2690    0.5000    0.0000 H       1  UNL1        0.0625
     14 H           1.4631   -1.1200    0.0000 H       1  UNL1        0.0654
     15 H           4.2690   -1.1200    0.0000 H       1  UNL1        0.0654
     16 H           2.3291    2.0000    0.0000 H       1  UNL1        0.0620
     17 H           3.7320    2.8100    0.0000 H       1  UNL1        0.0569
     18 H           4.2881    1.1531    0.0000 H       1  UNL1        0.0272
     19 H           5.1350    1.3800    0.0000 H       1  UNL1        0.0272
     20 H           4.9081    2.2269    0.0000 H       1  UNL1        0.0272
     21 H           1.6900   -2.2731    0.0000 H       1  UNL1        0.0660
     22 H           1.4631   -3.1200    0.0000 H       1  UNL1        0.0660
     23 H           2.3100   -3.3469    0.0000 H       1  UNL1        0.0660
@<TRIPOS>BOND
     1     1     5    1
     2     1    11    1
     3     2     3   ar
     4     2     4   ar
     5     2     8    1
     6     3     6   ar
     7     3    12    1
     8     4     7   ar
     9     4    13    1
    10     5     6   ar
    11     5     7   ar
    12     6    14    1
    13     7    15    1
    14     8     9    2
    15     8    16    1
    16     9    10    1
    17     9    17    1
    18    10    18    1
    19    10    19    1
    20    10    20    1
    21    11    21    1
    22    11    22    1
    23    11    23    1
