@<TRIPOS>MOLECULE
IMPHY007911
 26 27 0 0 0
SMALL
GASTEIGER

@<TRIPOS>ATOM
      1 O           5.6867    0.8809    0.0000 O.3     1  UNL1       -0.3902
      2 O           2.1916    1.0937    0.0000 O.3     1  UNL1       -0.3947
      3 N           4.4298   -1.3743    0.0000 N.3     1  UNL1       -0.2965
      4 C           4.4298   -0.3743    0.0000 C.3     1  UNL1        0.0413
      5 C           3.4788   -0.0653    0.0000 C.3     1  UNL1        0.0013
      6 C           5.3760   -0.0696    0.0000 C.3     1  UNL1        0.0722
      7 C           2.8910   -0.8743    0.0000 C.3     1  UNL1       -0.0338
      8 C           3.4788   -1.6833    0.0000 C.3     1  UNL1       -0.0004
      9 C           5.3760   -1.6790    0.0000 C.3     1  UNL1        0.0017
     10 C           5.9596   -0.8743    0.0000 C.3     1  UNL1       -0.0125
     11 C           3.1697    0.8858    0.0000 C.3     1  UNL1        0.0486
     12 H           4.4309    0.4757    0.0000 H       1  UNL1        0.0491
     13 H           3.9172    0.3731    0.0000 H       1  UNL1        0.0339
     14 H           5.9885    0.0266    0.0000 H       1  UNL1        0.0609
     15 H           2.4302   -0.4595    0.0000 H       1  UNL1        0.0281
     16 H           2.4302   -1.2892    0.0000 H       1  UNL1        0.0281
     17 H           2.9418   -1.9933    0.0000 H       1  UNL1        0.0427
     18 H           3.7309   -2.2497    0.0000 H       1  UNL1        0.0427
     19 H           5.1250   -2.2460    0.0000 H       1  UNL1        0.0427
     20 H           5.9134   -1.9883    0.0000 H       1  UNL1        0.0427
     21 H           6.4205   -1.2890    0.0000 H       1  UNL1        0.0303
     22 H           6.4205   -0.4596    0.0000 H       1  UNL1        0.0303
     23 H           3.7837    0.9720    0.0000 H       1  UNL1        0.0560
     24 H           3.1914    1.5054    0.0000 H       1  UNL1        0.0560
     25 H           6.2934    1.0088    0.0000 H       1  UNL1        0.2098
     26 H           2.0000    1.6833    0.0000 H       1  UNL1        0.2094
@<TRIPOS>BOND
     1     6     1    1
     2     1    25    1
     3     2    11    1
     4     2    26    1
     5     3     4    1
     6     3     8    1
     7     3     9    1
     8     4     5    1
     9     4     6    1
    10     4    12    1
    11     5     7    1
    12     5    11    1
    13     5    13    1
    14     6    10    1
    15     6    14    1
    16     7     8    1
    17     7    15    1
    18     7    16    1
    19     8    17    1
    20     8    18    1
    21     9    10    1
    22     9    19    1
    23     9    20    1
    24    10    21    1
    25    10    22    1
    26    11    23    1
    27    11    24    1
