@<TRIPOS>MOLECULE
IMPHY015972
 40 40 0 0 0
SMALL
GASTEIGER

@<TRIPOS>ATOM
      1 O           2.5369   -2.7500    0.0000 O.3     1  UNL1       -0.3872
      2 C           4.2690   -0.7500    0.0000 C.3     1  UNL1       -0.0174
      3 C           4.2690    0.2500    0.0000 C.3     1  UNL1       -0.0372
      4 C           3.4030   -1.2500    0.0000 C.3     1  UNL1       -0.0162
      5 C           5.1350    0.7500    0.0000 C.3     1  UNL1       -0.0465
      6 C           3.4030   -2.2500    0.0000 C.3     1  UNL1        0.0802
      7 C           5.1350   -1.2500    0.0000 C.2     1  UNL1       -0.0802
      8 C           3.4030    0.7500    0.0000 C.3     1  UNL1       -0.0619
      9 C           5.1350    1.7500    0.0000 C.3     1  UNL1       -0.0343
     10 C           4.2690   -2.7500    0.0000 C.2     1  UNL1       -0.0265
     11 C           5.1350   -2.2500    0.0000 C.2     1  UNL1       -0.0603
     12 C           6.0010    2.2500    0.0000 C.2     1  UNL1       -0.0853
     13 C           4.2690   -3.7500    0.0000 C.2     1  UNL1       -0.0931
     14 C           6.0010    3.2500    0.0000 C.2     1  UNL1       -0.0796
     15 C           6.8671    3.7500    0.0000 C.3     1  UNL1       -0.0440
     16 C           5.1350    3.7500    0.0000 C.3     1  UNL1       -0.0440
     17 H           4.8059   -0.4400    0.0000 H       1  UNL1        0.0347
     18 H           4.2690    0.8700    0.0000 H       1  UNL1        0.0304
     19 H           3.1909   -0.6674    0.0000 H       1  UNL1        0.0299
     20 H           2.7924   -1.3577    0.0000 H       1  UNL1        0.0299
     21 H           5.3471    0.1674    0.0000 H       1  UNL1        0.0271
     22 H           5.7456    0.8577    0.0000 H       1  UNL1        0.0271
     23 H           3.4030   -2.8700    0.0000 H       1  UNL1        0.0643
     24 H           5.6720   -0.9400    0.0000 H       1  UNL1        0.0575
     25 H           3.7130    1.2869    0.0000 H       1  UNL1        0.0233
     26 H           2.8660    1.0600    0.0000 H       1  UNL1        0.0233
     27 H           3.0930    0.2131    0.0000 H       1  UNL1        0.0233
     28 H           4.9230    2.3326    0.0000 H       1  UNL1        0.0307
     29 H           4.5244    1.6423    0.0000 H       1  UNL1        0.0307
     30 H           5.6720   -2.5600    0.0000 H       1  UNL1        0.0618
     31 H           6.5380    1.9400    0.0000 H       1  UNL1        0.0571
     32 H           2.0000   -2.4400    0.0000 H       1  UNL1        0.2102
     33 H           3.7320   -4.0600    0.0000 H       1  UNL1        0.0538
     34 H           4.8059   -4.0600    0.0000 H       1  UNL1        0.0538
     35 H           7.1771    3.2131    0.0000 H       1  UNL1        0.0274
     36 H           7.4040    4.0600    0.0000 H       1  UNL1        0.0274
     37 H           6.5571    4.2869    0.0000 H       1  UNL1        0.0274
     38 H           5.4450    4.2869    0.0000 H       1  UNL1        0.0274
     39 H           4.5981    4.0600    0.0000 H       1  UNL1        0.0274
     40 H           4.8250    3.2131    0.0000 H       1  UNL1        0.0274
@<TRIPOS>BOND
     1     6     1    1
     2     1    32    1
     3     2     3    1
     4     2     4    1
     5     2     7    1
     6     2    17    1
     7     3     5    1
     8     3     8    1
     9     3    18    1
    10     4     6    1
    11     4    19    1
    12     4    20    1
    13     5     9    1
    14     5    21    1
    15     5    22    1
    16     6    10    1
    17     6    23    1
    18     7    11    2
    19     7    24    1
    20     8    25    1
    21     8    26    1
    22     8    27    1
    23     9    12    1
    24     9    28    1
    25     9    29    1
    26    10    11    1
    27    10    13    2
    28    11    30    1
    29    12    14    2
    30    12    31    1
    31    13    33    1
    32    13    34    1
    33    14    15    1
    34    14    16    1
    35    15    35    1
    36    15    36    1
    37    15    37    1
    38    16    38    1
    39    16    39    1
    40    16    40    1
