@<TRIPOS>MOLECULE
IMPHY000340
 75 81 0 0 0
SMALL
GASTEIGER

@<TRIPOS>ATOM
      1 O           5.6547   -1.5820    0.0000 O.3     1  UNL1       -0.4575
      2 O           8.8417   -0.5465    0.0000 O.3     1  UNL1       -0.4646
      3 O           9.2018    1.1477    0.0000 O.2     1  UNL1       -0.2453
      4 O           8.6080    5.4118    0.0000 O.3     1  UNL1       -0.4951
      5 O           6.9418   -2.7410    0.0000 O.2     1  UNL1       -0.2449
      6 O           5.0358   -5.9593    0.0000 O.3     1  UNL1       -0.4524
      7 O           3.4615   -5.6247    0.0000 O.3     1  UNL1       -0.4489
      8 O           2.6691   -3.6035    0.0000 O.3     1  UNL1       -0.4913
      9 N           4.8116    1.1955    0.0000 N.3     1  UNL1       -0.2975
     10 N           7.8911    2.1961    0.0000 N.pl3   1  UNL1       -0.3163
     11 C           5.7259    1.0012    0.0000 C.3     1  UNL1        0.0346
     12 C           6.3514    1.6958    0.0000 C.3     1  UNL1        0.0532
     13 C           6.0148    0.1122    0.0000 C.3     1  UNL1        0.0285
     14 C           5.9663    2.7314    0.0000 C.3     1  UNL1       -0.0238
     15 C           5.3893   -0.5824    0.0000 C.3     1  UNL1       -0.0411
     16 C           6.9291   -0.0821    0.0000 C.3     1  UNL1       -0.0089
     17 C           4.5228    2.0845    0.0000 C.3     1  UNL1        0.0004
     18 C           7.2657    1.5014    0.0000 C.2     1  UNL1        0.0304
     19 C           6.3238   -0.8389    0.0000 C.3     1  UNL1        0.1080
     20 C           4.1862    0.5009    0.0000 C.3     1  UNL1       -0.0007
     21 C           6.6880    3.2794    0.0000 C.ar    1  UNL1       -0.0127
     22 C           4.4750   -0.3881    0.0000 C.3     1  UNL1       -0.0395
     23 C           7.5545    0.6125    0.0000 C.2     1  UNL1        0.0551
     24 C           7.6023    3.0851    0.0000 C.ar    1  UNL1        0.0388
     25 C           7.3019   -1.0468    0.0000 C.3     1  UNL1       -0.0271
     26 C           6.3991    4.1684    0.0000 C.ar    1  UNL1       -0.0524
     27 C           8.5327    0.4046    0.0000 C.2     1  UNL1        0.3364
     28 C           8.2277    3.7797    0.0000 C.ar    1  UNL1        0.0015
     29 C           7.0246    4.8630    0.0000 C.ar    1  UNL1       -0.0196
     30 C           7.9389    4.6687    0.0000 C.ar    1  UNL1        0.1219
     31 C           5.9637   -2.5331    0.0000 C.2     1  UNL1        0.3397
     32 C           5.2946   -3.2762    0.0000 C.ar    1  UNL1        0.0661
     33 C           9.8198   -0.7544    0.0000 C.3     1  UNL1        0.0820
     34 C           8.2990    6.3628    0.0000 C.3     1  UNL1        0.0788
     35 C           5.6036   -4.2273    0.0000 C.ar    1  UNL1       -0.0019
     36 C           4.3164   -3.0683    0.0000 C.ar    1  UNL1       -0.0021
     37 C           4.9344   -4.9704    0.0000 C.ar    1  UNL1        0.1707
     38 C           3.6473   -3.8114    0.0000 C.ar    1  UNL1        0.1661
     39 C           3.9563   -4.7625    0.0000 C.ar    1  UNL1        0.2076
     40 C           4.1273   -6.3628    0.0000 C.3     1  UNL1        0.2334
     41 C           2.0000   -4.3467    0.0000 C.3     1  UNL1        0.0790
     42 H           5.4633    1.8096    0.0000 H       1  UNL1        0.0482
     43 H           6.5426    2.9601    0.0000 H       1  UNL1        0.0290
     44 H           5.7251    3.3026    0.0000 H       1  UNL1        0.0290
     45 H           5.1571   -1.1573    0.0000 H       1  UNL1        0.0273
     46 H           5.9151   -0.9110    0.0000 H       1  UNL1        0.0273
     47 H           6.6968   -0.6570    0.0000 H       1  UNL1        0.0323
     48 H           7.4549   -0.4107    0.0000 H       1  UNL1        0.0323
     49 H           4.2896    2.6589    0.0000 H       1  UNL1        0.0427
     50 H           3.9404    1.8719    0.0000 H       1  UNL1        0.0427
     51 H           6.5154   -1.4285    0.0000 H       1  UNL1        0.0737
     52 H           3.8045    0.9894    0.0000 H       1  UNL1        0.0427
     53 H           3.6388    0.2098    0.0000 H       1  UNL1        0.0427
     54 H           3.8611   -0.4744    0.0000 H       1  UNL1        0.0278
     55 H           4.4534   -1.0077    0.0000 H       1  UNL1        0.0278
     56 H           8.4976    2.0672    0.0000 H       1  UNL1        0.1519
     57 H           7.1730   -1.6532    0.0000 H       1  UNL1        0.0265
     58 H           7.9084   -1.1757    0.0000 H       1  UNL1        0.0265
     59 H           7.4308   -0.4403    0.0000 H       1  UNL1        0.0265
     60 H           5.7927    4.2973    0.0000 H       1  UNL1        0.0622
     61 H           8.8342    3.6508    0.0000 H       1  UNL1        0.0673
     62 H           6.8330    5.4526    0.0000 H       1  UNL1        0.0654
     63 H           9.6909   -1.3608    0.0000 H       1  UNL1        0.0661
     64 H          10.4263   -0.8833    0.0000 H       1  UNL1        0.0661
     65 H           9.9487   -0.1479    0.0000 H       1  UNL1        0.0661
     66 H           8.8887    6.5544    0.0000 H       1  UNL1        0.0660
     67 H           8.1074    6.9525    0.0000 H       1  UNL1        0.0660
     68 H           7.7094    6.1713    0.0000 H       1  UNL1        0.0660
     69 H           6.2100   -4.3562    0.0000 H       1  UNL1        0.0663
     70 H           4.1248   -2.4786    0.0000 H       1  UNL1        0.0663
     71 H           3.6258   -6.7274    0.0000 H       1  UNL1        0.1166
     72 H           4.4372   -6.8999    0.0000 H       1  UNL1        0.1166
     73 H           1.5392   -3.9318    0.0000 H       1  UNL1        0.0660
     74 H           1.5851   -4.8074    0.0000 H       1  UNL1        0.0660
     75 H           2.4608   -4.7615    0.0000 H       1  UNL1        0.0660
@<TRIPOS>BOND
     1    19     1    1
     2     1    31    1
     3     2    27    1
     4     2    33    1
     5     3    27    2
     6     4    30    1
     7     4    34    1
     8     5    31    2
     9     6    37    1
    10     6    40    1
    11     7    39    1
    12     7    40    1
    13     8    38    1
    14     8    41    1
    15     9    11    1
    16     9    17    1
    17     9    20    1
    18    10    18    1
    19    10    24    1
    20    10    56    1
    21    11    12    1
    22    11    13    1
    23    11    42    1
    24    12    14    1
    25    12    18    1
    26    12    21    1
    27    13    15    1
    28    13    16    1
    29    13    19    1
    30    14    17    1
    31    14    43    1
    32    14    44    1
    33    15    22    1
    34    15    45    1
    35    15    46    1
    36    16    23    1
    37    16    47    1
    38    16    48    1
    39    17    49    1
    40    17    50    1
    41    18    23    2
    42    19    25    1
    43    19    51    1
    44    20    22    1
    45    20    52    1
    46    20    53    1
    47    21    24   ar
    48    21    26   ar
    49    22    54    1
    50    22    55    1
    51    23    27    1
    52    24    28   ar
    53    25    57    1
    54    25    58    1
    55    25    59    1
    56    26    29   ar
    57    26    60    1
    58    28    30   ar
    59    28    61    1
    60    29    30   ar
    61    29    62    1
    62    31    32    1
    63    32    35   ar
    64    32    36   ar
    65    33    63    1
    66    33    64    1
    67    33    65    1
    68    34    66    1
    69    34    67    1
    70    34    68    1
    71    35    37   ar
    72    35    69    1
    73    36    38   ar
    74    36    70    1
    75    37    39   ar
    76    38    39   ar
    77    40    71    1
    78    40    72    1
    79    41    73    1
    80    41    74    1
    81    41    75    1
