@<TRIPOS>MOLECULE
IMPHY007968
 47 51 0 0 0
SMALL
GASTEIGER

@<TRIPOS>ATOM
      1 O           6.8440    1.2224    0.0000 O.3     1  UNL1       -0.3723
      2 O           4.1017    0.3745    0.0000 O.3     1  UNL1       -0.3885
      3 O           3.9604   -0.4652    0.0000 O.2     1  UNL1       -0.2721
      4 O           4.6327   -2.5342    0.0000 O.3     1  UNL1       -0.2756
      5 N           3.6672    1.5741    0.0000 N.2     1  UNL1       -0.2884
      6 N           5.2205   -1.7252    0.0000 N.am    1  UNL1       -0.1476
      7 C           5.2205    2.0043    0.0000 C.3     1  UNL1        0.0152
      8 C           5.7205   -0.1864    0.0000 C.3     1  UNL1        0.1064
      9 C           4.6707    2.8325    0.0000 C.3     1  UNL1        0.0323
     10 C           6.6215    0.2475    0.0000 C.3     1  UNL1        0.1032
     11 C           4.5970    1.2224    0.0000 C.3     1  UNL1        0.0577
     12 C           4.8999    0.9768    0.0000 C.3     1  UNL1        0.0909
     13 C           4.8195    0.2475    0.0000 C.3     1  UNL1       -0.0095
     14 C           6.2205    2.0043    0.0000 C.3     1  UNL1        0.0536
     15 C           3.7127    2.5672    0.0000 C.2     1  UNL1        0.0195
     16 C           6.5295   -0.7742    0.0000 C.ar    1  UNL1       -0.0060
     17 C           4.9115   -0.7742    0.0000 C.2     1  UNL1        0.2560
     18 C           6.2205   -1.7252    0.0000 C.ar    1  UNL1        0.0686
     19 C           2.9309    3.1907    0.0000 C.3     1  UNL1       -0.0172
     20 C           7.5449   -0.5419    0.0000 C.ar    1  UNL1       -0.0556
     21 C           6.9055   -2.5100    0.0000 C.ar    1  UNL1       -0.0377
     22 C           2.0000    2.8253    0.0000 C.3     1  UNL1       -0.0602
     23 C           8.2479   -1.3106    0.0000 C.ar    1  UNL1       -0.0614
     24 C           7.9260   -2.3013    0.0000 C.ar    1  UNL1       -0.0599
     25 C           5.0395   -3.4478    0.0000 C.3     1  UNL1        0.0629
     26 H           5.7505    2.6688    0.0000 H       1  UNL1        0.0351
     27 H           4.5666    3.6761    0.0000 H       1  UNL1        0.0391
     28 H           7.3873    0.6163    0.0000 H       1  UNL1        0.0636
     29 H           3.8058    0.9119    0.0000 H       1  UNL1        0.0548
     30 H           4.9759    0.3615    0.0000 H       1  UNL1        0.0626
     31 H           4.1996    0.2475    0.0000 H       1  UNL1        0.0300
     32 H           4.6816   -0.3570    0.0000 H       1  UNL1        0.0300
     33 H           6.7791    2.2733    0.0000 H       1  UNL1        0.0563
     34 H           6.0826    2.6087    0.0000 H       1  UNL1        0.0563
     35 H           3.3957    3.6009    0.0000 H       1  UNL1        0.0322
     36 H           2.6076    3.7197    0.0000 H       1  UNL1        0.0322
     37 H           3.5308    0.6163    0.0000 H       1  UNL1        0.2099
     38 H           7.7297    0.0499    0.0000 H       1  UNL1        0.0621
     39 H           6.7071   -3.0974    0.0000 H       1  UNL1        0.0637
     40 H           1.7735    3.4025    0.0000 H       1  UNL1        0.0233
     41 H           1.4229    2.5988    0.0000 H       1  UNL1        0.0233
     42 H           2.2265    2.2482    0.0000 H       1  UNL1        0.0233
     43 H           8.8538   -1.1794    0.0000 H       1  UNL1        0.0618
     44 H           8.3391   -2.7636    0.0000 H       1  UNL1        0.0618
     45 H           4.4731   -3.7000    0.0000 H       1  UNL1        0.0547
     46 H           5.2916   -4.0142    0.0000 H       1  UNL1        0.0547
     47 H           5.6059   -3.1956    0.0000 H       1  UNL1        0.0547
@<TRIPOS>BOND
     1     1    10    1
     2     1    14    1
     3     2    12    1
     4     2    37    1
     5     3    17    2
     6     4     6    1
     7     4    25    1
     8     5    11    1
     9     5    15    2
    10     6    17   am
    11     6    18    1
    12     7     9    1
    13     7    11    1
    14     7    14    1
    15     7    26    1
    16     8    10    1
    17     8    13    1
    18     8    16    1
    19     8    17    1
    20     9    12    1
    21     9    15    1
    22     9    27    1
    23    10    12    1
    24    10    28    1
    25    11    13    1
    26    11    29    1
    27    12    30    1
    28    13    31    1
    29    13    32    1
    30    14    33    1
    31    14    34    1
    32    15    19    1
    33    16    18   ar
    34    16    20   ar
    35    18    21   ar
    36    19    22    1
    37    19    35    1
    38    19    36    1
    39    20    23   ar
    40    20    38    1
    41    21    24   ar
    42    21    39    1
    43    22    40    1
    44    22    41    1
    45    22    42    1
    46    23    24   ar
    47    23    43    1
    48    24    44    1
    49    25    45    1
    50    25    46    1
    51    25    47    1
