@<TRIPOS>MOLECULE
IMPHY002086
 48 50 0 0 0
SMALL
GASTEIGER

@<TRIPOS>ATOM
      1 O           6.3479    4.2751    0.0000 O.2     1  UNL1       -0.2705
      2 O           6.1160   -3.4982    0.0000 O.2     1  UNL1       -0.2702
      3 N           3.5000    2.3213    0.0000 N.3     1  UNL1       -0.2786
      4 N           4.5878    3.9964    0.0000 N.am    1  UNL1       -0.2900
      5 N           4.9945   -2.1133    0.0000 N.am    1  UNL1       -0.2820
      6 C           4.0000    3.1873    0.0000 C.3     1  UNL1        0.1081
      7 C           3.5000    4.0534    0.0000 C.3     1  UNL1       -0.0140
      8 C           2.5000    2.3213    0.0000 C.3     1  UNL1        0.0011
      9 C           2.5000    4.0534    0.0000 C.3     1  UNL1       -0.0484
     10 C           2.0000    3.1873    0.0000 C.3     1  UNL1       -0.0400
     11 C           4.0000    1.4553    0.0000 C.3     1  UNL1        0.0014
     12 C           4.5878    2.3783    0.0000 C.2     1  UNL1       -0.0384
     13 C           5.5388    2.6873    0.0000 C.2     1  UNL1        0.0106
     14 C           5.5388    3.6873    0.0000 C.2     1  UNL1        0.2412
     15 C           3.5000    0.5893    0.0000 C.3     1  UNL1       -0.0366
     16 C           4.0000   -0.2768    0.0000 C.3     1  UNL1       -0.0316
     17 C           6.3479    2.0995    0.0000 C.3     1  UNL1       -0.0350
     18 C           3.5000   -1.1428    0.0000 C.2     1  UNL1       -0.0627
     19 C           4.0000   -2.0088    0.0000 C.2     1  UNL1        0.0301
     20 C           3.5933   -2.9224    0.0000 C.2     1  UNL1       -0.0329
     21 C           4.3364   -3.5915    0.0000 C.2     1  UNL1        0.0133
     22 C           5.2024   -3.0915    0.0000 C.2     1  UNL1        0.2440
     23 C           4.2319   -4.5860    0.0000 C.3     1  UNL1       -0.0347
     24 H           4.0826    4.2654    0.0000 H       1  UNL1        0.0302
     25 H           3.3923    4.6640    0.0000 H       1  UNL1        0.0302
     26 H           1.9174    2.1093    0.0000 H       1  UNL1        0.0427
     27 H           2.6077    1.7107    0.0000 H       1  UNL1        0.0427
     28 H           2.6077    4.6640    0.0000 H       1  UNL1        0.0267
     29 H           1.9174    4.2654    0.0000 H       1  UNL1        0.0267
     30 H           1.5250    3.5859    0.0000 H       1  UNL1        0.0278
     31 H           1.5250    2.7888    0.0000 H       1  UNL1        0.0278
     32 H           4.4750    1.0568    0.0000 H       1  UNL1        0.0427
     33 H           4.4750    1.8538    0.0000 H       1  UNL1        0.0427
     34 H           4.3962    1.7887    0.0000 H       1  UNL1        0.0611
     35 H           4.3962    4.5860    0.0000 H       1  UNL1        0.1511
     36 H           3.0250    0.9878    0.0000 H       1  UNL1        0.0281
     37 H           3.0250    0.1907    0.0000 H       1  UNL1        0.0281
     38 H           4.4750   -0.6753    0.0000 H       1  UNL1        0.0308
     39 H           4.4750    0.1218    0.0000 H       1  UNL1        0.0308
     40 H           5.9834    1.5980    0.0000 H       1  UNL1        0.0279
     41 H           6.8494    1.7351    0.0000 H       1  UNL1        0.0279
     42 H           6.7123    2.6011    0.0000 H       1  UNL1        0.0279
     43 H           2.8800   -1.1428    0.0000 H       1  UNL1        0.0590
     44 H           2.9868   -3.0513    0.0000 H       1  UNL1        0.0640
     45 H           5.4094   -1.6526    0.0000 H       1  UNL1        0.1551
     46 H           3.6153   -4.5212    0.0000 H       1  UNL1        0.0279
     47 H           4.1671   -5.2026    0.0000 H       1  UNL1        0.0279
     48 H           4.8485   -4.6508    0.0000 H       1  UNL1        0.0279
@<TRIPOS>BOND
     1     1    14    2
     2     2    22    2
     3     3     6    1
     4     3     8    1
     5     3    11    1
     6     6     4    1
     7     4    14   am
     8     4    35    1
     9     5    19    1
    10     5    22   am
    11     5    45    1
    12     6     7    1
    13     6    12    1
    14     7     9    1
    15     7    24    1
    16     7    25    1
    17     8    10    1
    18     8    26    1
    19     8    27    1
    20     9    10    1
    21     9    28    1
    22     9    29    1
    23    10    30    1
    24    10    31    1
    25    11    15    1
    26    11    32    1
    27    11    33    1
    28    12    13    2
    29    12    34    1
    30    13    14    1
    31    13    17    1
    32    15    16    1
    33    15    36    1
    34    15    37    1
    35    16    18    1
    36    16    38    1
    37    16    39    1
    38    17    40    1
    39    17    41    1
    40    17    42    1
    41    18    19    2
    42    18    43    1
    43    19    20    1
    44    20    21    2
    45    20    44    1
    46    21    22    1
    47    21    23    1
    48    23    46    1
    49    23    47    1
    50    23    48    1
