@<TRIPOS>MOLECULE
IMPHY004409
 50 54 0 0 0
SMALL
GASTEIGER

@<TRIPOS>ATOM
      1 O           3.8816    0.2654    0.0000 O.2     1  UNL1       -0.4822
      2 O           3.0477    0.7866    0.0000 O.2     1  UNL1       -0.2931
      3 C           3.7274   -1.7704    0.0000 C.3     1  UNL1        0.0116
      4 C           2.8269   -2.2053    0.0000 C.3     1  UNL1       -0.0248
      5 C           2.0000   -1.6429    0.0000 C.3     1  UNL1       -0.0283
      6 C           3.8010   -0.7731    0.0000 C.3     1  UNL1        0.1708
      7 C           2.9008   -1.2036    0.0000 C.3     1  UNL1       -0.0419
      8 C           6.8748    1.0140    0.0000 C.3     1  UNL1       -0.0108
      9 C           8.2738    1.0228    0.0000 C.3     1  UNL1       -0.0250
     10 C           7.1336    1.9799    0.0000 C.3     1  UNL1       -0.0280
     11 C           6.3970    2.9625    0.0000 C.3     1  UNL1       -0.0422
     12 C           2.0736   -0.6456    0.0000 C.3     1  UNL1        0.0132
     13 C           5.6538    0.1483    0.0000 C.2     1  UNL1       -0.0284
     14 C           4.6645   -1.3556    0.0000 C.3     1  UNL1       -0.0018
     15 C           2.9741   -0.2107    0.0000 C.2     1  UNL1        0.1771
     16 C           5.1004    1.6688    0.0000 C.3     1  UNL1        0.0083
     17 C           4.8248    0.7075    0.0000 C.2     1  UNL1        0.0989
     18 C           5.5972   -0.8918    0.0000 C.3     1  UNL1       -0.0240
     19 C           2.0696   -2.8584    0.0000 C.3     1  UNL1       -0.0592
     20 C           3.4800   -2.9625    0.0000 C.3     1  UNL1       -0.0592
     21 C           9.1398    1.5228    0.0000 C.3     1  UNL1       -0.0590
     22 C           8.7738    0.1568    0.0000 C.3     1  UNL1       -0.0590
     23 H           4.4302   -2.2484    0.0000 H       1  UNL1        0.0349
     24 H           1.2346   -2.0126    0.0000 H       1  UNL1        0.0310
     25 H           3.3338   -0.7598    0.0000 H       1  UNL1        0.0272
     26 H           2.5377   -0.7010    0.0000 H       1  UNL1        0.0272
     27 H           7.3973    1.6844    0.0000 H       1  UNL1        0.0352
     28 H           7.7510    2.5642    0.0000 H       1  UNL1        0.0310
     29 H           6.7148    3.4949    0.0000 H       1  UNL1        0.0274
     30 H           5.7839    3.0545    0.0000 H       1  UNL1        0.0274
     31 H           1.9050   -0.0490    0.0000 H       1  UNL1        0.0346
     32 H           1.4568   -0.7081    0.0000 H       1  UNL1        0.0346
     33 H           4.2350   -1.8027    0.0000 H       1  UNL1        0.0311
     34 H           5.0315   -1.8553    0.0000 H       1  UNL1        0.0311
     35 H           5.0954    2.2888    0.0000 H       1  UNL1        0.0346
     36 H           4.4861    1.7526    0.0000 H       1  UNL1        0.0346
     37 H           5.7742   -1.4860    0.0000 H       1  UNL1        0.0313
     38 H           6.2129   -0.8190    0.0000 H       1  UNL1        0.0313
     39 H           3.0105   -3.3675    0.0000 H       1  UNL1        0.0235
     40 H           3.8850   -3.4320    0.0000 H       1  UNL1        0.0235
     41 H           3.9495   -2.5576    0.0000 H       1  UNL1        0.0235
     42 H           1.6647   -2.3890    0.0000 H       1  UNL1        0.0235
     43 H           1.6002   -3.2634    0.0000 H       1  UNL1        0.0235
     44 H           2.4746   -3.3279    0.0000 H       1  UNL1        0.0235
     45 H           9.4498    0.9859    0.0000 H       1  UNL1        0.0235
     46 H           9.6767    1.8328    0.0000 H       1  UNL1        0.0235
     47 H           8.8298    2.0598    0.0000 H       1  UNL1        0.0235
     48 H           8.2368   -0.1532    0.0000 H       1  UNL1        0.0235
     49 H           9.0838   -0.3801    0.0000 H       1  UNL1        0.0235
     50 H           9.3107    0.4668    0.0000 H       1  UNL1        0.0235
@<TRIPOS>BOND
     1     1     6    1
     2     1    17    1
     3     2    15    2
     4     3     4    1
     5     3     6    1
     6     3     7    1
     7     3    23    1
     8     4     5    1
     9     4    19    1
    10     4    20    1
    11     5     7    1
    12     5    12    1
    13     5    24    1
    14     6    14    1
    15     6    15    1
    16     7    25    1
    17     7    26    1
    18     8     9    1
    19     8    11    1
    20     8    13    1
    21     8    27    1
    22     9    10    1
    23     9    21    1
    24     9    22    1
    25    10    11    1
    26    10    16    1
    27    10    28    1
    28    11    29    1
    29    11    30    1
    30    12    15    1
    31    12    31    1
    32    12    32    1
    33    13    17    2
    34    13    18    1
    35    14    18    1
    36    14    33    1
    37    14    34    1
    38    16    17    1
    39    16    35    1
    40    16    36    1
    41    18    37    1
    42    18    38    1
    43    19    42    1
    44    19    43    1
    45    19    44    1
    46    20    39    1
    47    20    40    1
    48    20    41    1
    49    21    45    1
    50    21    46    1
    51    21    47    1
    52    22    48    1
    53    22    49    1
    54    22    50    1
