@<TRIPOS>MOLECULE
IMPHY013952
 21 20 0 0 0
SMALL
GASTEIGER

@<TRIPOS>ATOM
      1 O           6.8671    0.6550    0.0000 O.3     1  UNL1       -0.4781
      2 OD1         6.0010   -1.8450    0.0000 O.3     1  UNL1       -0.4805
      3 OXT         6.0010    2.1550    0.0000 O.2     1  UNL1       -0.2469
      4 OD2         6.8671   -0.3450    0.0000 O.2     1  UNL1       -0.2509
      5 N           4.2690    1.1550    0.0000 N.pl3   1  UNL1       -0.0982
      6 N           2.5369    1.1550    0.0000 N.pl3   1  UNL1       -0.2892
      7 N           3.4030   -0.3450    0.0000 N.pl3   1  UNL1       -0.2892
      8 CA          5.1350    0.6550    0.0000 C.3     1  UNL1        0.2206
      9 CB          5.1350   -0.3450    0.0000 C.3     1  UNL1        0.0923
     10 C           6.0010    1.1550    0.0000 C.2     1  UNL1        0.3464
     11 CG          6.0010   -0.8450    0.0000 C.2     1  UNL1        0.3087
     12 C           3.4030    0.6550    0.0000 C.cat   0  ACE0        0.3773
     13 HA          5.1350    1.2750    0.0000 H       1  UNL1        0.0854
     14 HB1         4.5244   -0.2373    0.0000 H       1  UNL1        0.0419
     15 HB2         4.9230   -0.9276    0.0000 H       1  UNL1        0.0419
     16 H           7.4040    0.9650    0.0000 H       1  UNL1        0.2952
     17 H           2.0000    0.8450    0.0000 H       1  UNL1        0.2546
     18 H           2.5369    1.7750    0.0000 H       1  UNL1        0.2546
     19 H           2.8660   -0.6550    0.0000 H       1  UNL1        0.2546
     20 H           3.9399   -0.6550    0.0000 H       1  UNL1        0.2546
     21 HD1         5.4641   -2.1550    0.0000 H       1  UNL1        0.2951
@<TRIPOS>BOND
     1     1    10    1
     2     1    16    1
     3     2    11    1
     4     2    21    1
     5     3    10    2
     6     4    11    2
     7     8     5    1
     8     5    12    2
     9     6    12    1
    10     6    17    1
    11     6    18    1
    12     7    12    1
    13     7    19    1
    14     7    20    1
    15     8     9    1
    16     8    10    1
    17     8    13    1
    18     9    11    1
    19     9    14    1
    20     9    15    1
