@<TRIPOS>MOLECULE
IMPHY006577
 26 27 0 0 0
SMALL
GASTEIGER

@<TRIPOS>ATOM
      1 S           5.9150    0.5866    0.0000 S.2     1  UNL1       -0.0843
      2 S           7.9841   -0.0856    0.0000 S.2     1  UNL1       -0.0794
      3 O           3.9470   -0.1127    0.0000 O.2     1  UNL1       -0.2791
      4 O           2.4608    1.2255    0.0000 O.3     1  UNL1       -0.4749
      5 O           3.6197    2.5127    0.0000 O.2     1  UNL1       -0.2414
      6 C           6.7240    1.1744    0.0000 C.ar    1  UNL1        0.0266
      7 C           7.6751    0.8654    0.0000 C.ar    1  UNL1        0.0271
      8 C           6.4150    2.1255    0.0000 C.ar    1  UNL1       -0.0457
      9 C           5.1060    1.1744    0.0000 C.ar    1  UNL1        0.0666
     10 C           5.4150    2.1255    0.0000 C.ar    1  UNL1       -0.0430
     11 C           8.4841    1.4532    0.0000 C.ar    1  UNL1       -0.0452
     12 C           9.2931    0.8654    0.0000 C.ar    1  UNL1       -0.0386
     13 C           8.9841   -0.0856    0.0000 C.ar    1  UNL1        0.0625
     14 C           4.1550    0.8654    0.0000 C.2     1  UNL1        0.2756
     15 C           9.5719   -0.8947    0.0000 C.1     1  UNL1       -0.0594
     16 C           3.4118    1.5346    0.0000 C.2     1  UNL1        0.3781
     17 C          10.1597   -1.7037    0.0000 C.1     1  UNL1       -0.0998
     18 C          10.7475   -2.5127    0.0000 C.3     1  UNL1       -0.0022
     19 H           6.7794    2.6271    0.0000 H       1  UNL1        0.0629
     20 H           5.0506    2.6271    0.0000 H       1  UNL1        0.0630
     21 H           8.4841    2.0732    0.0000 H       1  UNL1        0.0629
     22 H           9.8828    1.0570    0.0000 H       1  UNL1        0.0635
     23 H          10.2459   -2.8771    0.0000 H       1  UNL1        0.0362
     24 H          11.1119   -3.0143    0.0000 H       1  UNL1        0.0362
     25 H          11.2491   -2.1483    0.0000 H       1  UNL1        0.0362
     26 H           2.0000    1.6404    0.0000 H       1  UNL1        0.2955
@<TRIPOS>BOND
     1     1     6   ar
     2     1     9   ar
     3     2     7   ar
     4     2    13   ar
     5     3    14    2
     6     4    16    1
     7     4    26    1
     8     5    16    2
     9     6     7    1
    10     6     8   ar
    11     7    11   ar
    12     8    10   ar
    13     8    19    1
    14     9    10   ar
    15     9    14    1
    16    10    20    1
    17    11    12   ar
    18    11    21    1
    19    12    13   ar
    20    12    22    1
    21    13    15    1
    22    14    16    1
    23    15    17    3
    24    17    18    1
    25    18    23    1
    26    18    24    1
    27    18    25    1
