@<TRIPOS>MOLECULE
IMPHY013762
 11 11 0 0 0
SMALL
GASTEIGER

@<TRIPOS>ATOM
      1 O           2.0000   -0.4314    0.0000 O.2     1  UNL1       -0.2736
      2 O           5.5202   -0.4314    0.0000 O.2     1  UNL1       -0.2524
      3 N           4.2601    0.8286    0.0000 N.am    1  UNL1       -0.2905
      4 N           3.7601   -0.7102    0.0000 N.am    1  UNL1       -0.2389
      5 C           3.2601    0.8286    0.0000 C.3     1  UNL1        0.0900
      6 C           2.9511   -0.1224    0.0000 C.2     1  UNL1        0.2376
      7 C           4.5691   -0.1224    0.0000 C.2     1  UNL1        0.3063
      8 H           3.3249    1.4452    0.0000 H       1  UNL1        0.0558
      9 H           2.6536    0.9575    0.0000 H       1  UNL1        0.0558
     10 H           4.6245    1.3302    0.0000 H       1  UNL1        0.1507
     11 H           3.7601   -1.3302    0.0000 H       1  UNL1        0.1591
@<TRIPOS>BOND
     1     1     6    2
     2     2     7    2
     3     3     5    1
     4     3     7   am
     5     3    10    1
     6     4     6   am
     7     4     7   am
     8     4    11    1
     9     5     6    1
    10     5     8    1
    11     5     9    1
