@<TRIPOS>MOLECULE
IMPHY001538
 36 35 0 0 0
SMALL
GASTEIGER

@<TRIPOS>ATOM
      1 O           2.5369    0.7500    0.0000 O.3     1  UNL1       -0.3921
      2 C           6.8671    0.2500    0.0000 C.3     1  UNL1       -0.0531
      3 C           6.0010    0.7500    0.0000 C.3     1  UNL1       -0.0530
      4 C           7.7331    0.7500    0.0000 C.3     1  UNL1       -0.0531
      5 C           5.1350    0.2500    0.0000 C.3     1  UNL1       -0.0507
      6 C           8.5991    0.2500    0.0000 C.3     1  UNL1       -0.0531
      7 C           4.2690    0.7500    0.0000 C.3     1  UNL1       -0.0271
      8 C           9.4651    0.7500    0.0000 C.3     1  UNL1       -0.0533
      9 C           3.4030    0.2500    0.0000 C.3     1  UNL1        0.0524
     10 C          10.3312    0.2500    0.0000 C.3     1  UNL1       -0.0559
     11 C           3.4030   -0.7500    0.0000 C.3     1  UNL1       -0.0389
     12 C          11.1972    0.7500    0.0000 C.3     1  UNL1       -0.0653
     13 H           6.4685   -0.2249    0.0000 H       1  UNL1        0.0265
     14 H           7.2656   -0.2249    0.0000 H       1  UNL1        0.0265
     15 H           6.3996    1.2250    0.0000 H       1  UNL1        0.0265
     16 H           5.6025    1.2250    0.0000 H       1  UNL1        0.0265
     17 H           8.1316    1.2250    0.0000 H       1  UNL1        0.0265
     18 H           7.3346    1.2250    0.0000 H       1  UNL1        0.0265
     19 H           4.7365   -0.2249    0.0000 H       1  UNL1        0.0266
     20 H           5.5335   -0.2249    0.0000 H       1  UNL1        0.0266
     21 H           8.2006   -0.2249    0.0000 H       1  UNL1        0.0265
     22 H           8.9976   -0.2249    0.0000 H       1  UNL1        0.0265
     23 H           4.6675    1.2250    0.0000 H       1  UNL1        0.0290
     24 H           3.8705    1.2250    0.0000 H       1  UNL1        0.0290
     25 H           9.8637    1.2250    0.0000 H       1  UNL1        0.0265
     26 H           9.0666    1.2250    0.0000 H       1  UNL1        0.0265
     27 H           3.4030    0.8700    0.0000 H       1  UNL1        0.0590
     28 H           9.9326   -0.2249    0.0000 H       1  UNL1        0.0263
     29 H          10.7297   -0.2249    0.0000 H       1  UNL1        0.0263
     30 H           2.7830   -0.7500    0.0000 H       1  UNL1        0.0254
     31 H           3.4030   -1.3700    0.0000 H       1  UNL1        0.0254
     32 H           4.0230   -0.7500    0.0000 H       1  UNL1        0.0254
     33 H          11.5072    0.2131    0.0000 H       1  UNL1        0.0230
     34 H          11.7341    1.0600    0.0000 H       1  UNL1        0.0230
     35 H          10.8872    1.2869    0.0000 H       1  UNL1        0.0230
     36 H           2.0000    0.4400    0.0000 H       1  UNL1        0.2098
@<TRIPOS>BOND
     1     1     9    1
     2     1    36    1
     3     2     3    1
     4     2     4    1
     5     2    13    1
     6     2    14    1
     7     3     5    1
     8     3    15    1
     9     3    16    1
    10     4     6    1
    11     4    17    1
    12     4    18    1
    13     5     7    1
    14     5    19    1
    15     5    20    1
    16     6     8    1
    17     6    21    1
    18     6    22    1
    19     7     9    1
    20     7    23    1
    21     7    24    1
    22     8    10    1
    23     8    25    1
    24     8    26    1
    25     9    11    1
    26     9    27    1
    27    10    12    1
    28    10    28    1
    29    10    29    1
    30    11    30    1
    31    11    31    1
    32    11    32    1
    33    12    33    1
    34    12    34    1
    35    12    35    1
