@<TRIPOS>MOLECULE
IMPHY014398
 49 51 0 0 0
SMALL
GASTEIGER

@<TRIPOS>ATOM
      1 O           6.3406   -3.5527    0.0000 O.3     1  UNL1       -0.4773
      2 O           4.6087   -3.5327    0.0000 O.2     1  UNL1       -0.2455
      3 O           2.0296    3.6726    0.0000 O.2     1  UNL1       -0.4708
      4 C           3.7320   -0.0081    0.0000 C.3     1  UNL1       -0.0221
      5 C           4.5981   -0.5081    0.0000 C.3     1  UNL1       -0.0074
      6 C           4.5981   -1.5081    0.0000 C.3     1  UNL1        0.0064
      7 C           2.8660   -0.5081    0.0000 C.3     1  UNL1       -0.0379
      8 C           3.7320   -2.0081    0.0000 C.3     1  UNL1       -0.0426
      9 C           2.8660   -1.5081    0.0000 C.3     1  UNL1       -0.0491
     10 C           3.2320    0.8579    0.0000 C.3     1  UNL1       -0.0427
     11 C           4.2320    0.8579    0.0000 C.3     1  UNL1       -0.0587
     12 C           5.4920   -2.0428    0.0000 C.2     1  UNL1        0.0428
     13 C           5.4920    0.0266    0.0000 C.2     1  UNL1       -0.0795
     14 C           4.5981   -2.5081    0.0000 C.3     1  UNL1       -0.0548
     15 C           2.0000   -0.0081    0.0000 C.3     1  UNL1       -0.0619
     16 C           3.7320    1.7239    0.0000 C.3     1  UNL1       -0.0242
     17 C           6.3981   -1.5289    0.0000 C.2     1  UNL1       -0.0515
     18 C           6.3981   -0.4873    0.0000 C.2     1  UNL1       -0.0649
     19 C           5.4804   -3.0427    0.0000 C.2     1  UNL1        0.3333
     20 C           3.2320    2.5900    0.0000 C.ar    1  UNL1       -0.0097
     21 C           3.6388    3.5035    0.0000 C.ar    1  UNL1       -0.0208
     22 C           2.2375    2.6945    0.0000 C.ar    1  UNL1        0.0948
     23 C           2.8956    4.1726    0.0000 C.ar    1  UNL1        0.0919
     24 H           4.5915    0.3419    0.0000 H       1  UNL1        0.0357
     25 H           2.8660    0.1119    0.0000 H       1  UNL1        0.0304
     26 H           3.3335   -2.4831    0.0000 H       1  UNL1        0.0274
     27 H           4.1306   -2.4831    0.0000 H       1  UNL1        0.0274
     28 H           2.2554   -1.4004    0.0000 H       1  UNL1        0.0268
     29 H           2.6540   -2.0907    0.0000 H       1  UNL1        0.0268
     30 H           2.7571    1.2564    0.0000 H       1  UNL1        0.0274
     31 H           2.7571    0.4594    0.0000 H       1  UNL1        0.0274
     32 H           4.7690    0.5479    0.0000 H       1  UNL1        0.0235
     33 H           4.5420    1.3948    0.0000 H       1  UNL1        0.0235
     34 H           3.6951    1.1679    0.0000 H       1  UNL1        0.0235
     35 H           5.4848    0.6465    0.0000 H       1  UNL1        0.0575
     36 H           3.9781   -2.5081    0.0000 H       1  UNL1        0.0238
     37 H           4.5981   -3.1281    0.0000 H       1  UNL1        0.0238
     38 H           5.2181   -2.5081    0.0000 H       1  UNL1        0.0238
     39 H           2.3100    0.5288    0.0000 H       1  UNL1        0.0233
     40 H           1.4631    0.3019    0.0000 H       1  UNL1        0.0233
     41 H           1.6900   -0.5450    0.0000 H       1  UNL1        0.0233
     42 H           4.2070    1.3254    0.0000 H       1  UNL1        0.0314
     43 H           4.2070    2.1225    0.0000 H       1  UNL1        0.0314
     44 H           6.9338   -1.8410    0.0000 H       1  UNL1        0.0623
     45 H           6.9338   -0.1752    0.0000 H       1  UNL1        0.0615
     46 H           4.2452    3.6324    0.0000 H       1  UNL1        0.0652
     47 H           1.8227    2.2338    0.0000 H       1  UNL1        0.1032
     48 H           6.3335   -4.1726    0.0000 H       1  UNL1        0.2954
     49 H           2.9604    4.7892    0.0000 H       1  UNL1        0.1029
@<TRIPOS>BOND
     1     1    19    1
     2     1    48    1
     3     2    19    2
     4     3    22   ar
     5     3    23   ar
     6     4     5    1
     7     4     7    1
     8     4    10    1
     9     4    11    1
    10     5     6    1
    11     5    13    1
    12     5    24    1
    13     6     8    1
    14     6    12    1
    15     6    14    1
    16     7     9    1
    17     7    15    1
    18     7    25    1
    19     8     9    1
    20     8    26    1
    21     8    27    1
    22     9    28    1
    23     9    29    1
    24    10    16    1
    25    10    30    1
    26    10    31    1
    27    11    32    1
    28    11    33    1
    29    11    34    1
    30    12    17    2
    31    12    19    1
    32    13    18    2
    33    13    35    1
    34    14    36    1
    35    14    37    1
    36    14    38    1
    37    15    39    1
    38    15    40    1
    39    15    41    1
    40    16    20    1
    41    16    42    1
    42    16    43    1
    43    17    18    1
    44    17    44    1
    45    18    45    1
    46    20    21   ar
    47    20    22   ar
    48    21    23   ar
    49    21    46    1
    50    22    47    1
    51    23    49    1
