@<TRIPOS>MOLECULE
IMPHY005033
 56 61 0 0 0
SMALL
GASTEIGER

@<TRIPOS>ATOM
      1 O           6.8182   -2.9229    0.0000 O.3     1  UNL1       -0.4829
      2 O           7.6575    2.1989    0.0000 O.3     1  UNL1       -0.5063
      3 O          10.4197   -3.4807    0.0000 O.3     1  UNL1       -0.5066
      4 O           4.3574    0.9183    0.0000 O.3     1  UNL1       -0.5066
      5 O           2.3649   -1.6338    0.0000 O.3     1  UNL1       -0.5068
      6 O          10.1261    4.0528    0.0000 O.3     1  UNL1       -0.5068
      7 C           6.9896   -1.3078    0.0000 C.3     1  UNL1        0.0546
      8 C           7.8906   -1.7417    0.0000 C.ar    1  UNL1        0.0090
      9 C           6.3426   -2.0558    0.0000 C.3     1  UNL1        0.1360
     10 C           8.3906    0.4489    0.0000 C.3     1  UNL1        0.0169
     11 C           6.7671   -0.3329    0.0000 C.ar    1  UNL1       -0.0253
     12 C           9.0140   -0.3329    0.0000 C.3     1  UNL1       -0.0162
     13 C           8.7915   -1.3078    0.0000 C.ar    1  UNL1       -0.0357
     14 C           7.3906    0.4489    0.0000 C.ar    1  UNL1        0.0058
     15 C           7.7967   -2.7791    0.0000 C.ar    1  UNL1        0.1290
     16 C           5.3482   -1.9503    0.0000 C.ar    1  UNL1       -0.0062
     17 C           8.8244    1.3499    0.0000 C.ar    1  UNL1       -0.0393
     18 C           5.7348   -0.1936    0.0000 C.ar    1  UNL1       -0.0158
     19 C           9.6611   -1.8813    0.0000 C.ar    1  UNL1       -0.0165
     20 C           7.0250    1.4243    0.0000 C.ar    1  UNL1        0.1243
     21 C           8.6528   -3.3725    0.0000 C.ar    1  UNL1        0.0219
     22 C           9.5913   -2.9206    0.0000 C.ar    1  UNL1        0.1206
     23 C           5.3468    0.7731    0.0000 C.ar    1  UNL1        0.1206
     24 C           5.9962    1.5875    0.0000 C.ar    1  UNL1        0.0216
     25 C           4.9423   -1.0364    0.0000 C.ar    1  UNL1       -0.0516
     26 C           4.7596   -2.7587    0.0000 C.ar    1  UNL1       -0.0516
     27 C           9.8216    1.4246    0.0000 C.ar    1  UNL1       -0.0545
     28 C           8.2611    2.1761    0.0000 C.ar    1  UNL1       -0.0545
     29 C           3.9479   -0.9309    0.0000 C.ar    1  UNL1       -0.0198
     30 C           3.7652   -2.6532    0.0000 C.ar    1  UNL1       -0.0198
     31 C          10.2555    2.3256    0.0000 C.ar    1  UNL1       -0.0199
     32 C           8.6950    3.0771    0.0000 C.ar    1  UNL1       -0.0199
     33 C           3.3593   -1.7393    0.0000 C.ar    1  UNL1        0.1169
     34 C           9.6922    3.1518    0.0000 C.ar    1  UNL1        0.1169
     35 H           7.6542   -0.7779    0.0000 H       1  UNL1        0.0438
     36 H           5.9990   -2.5719    0.0000 H       1  UNL1        0.0794
     37 H           9.0067    0.5183    0.0000 H       1  UNL1        0.0402
     38 H           9.5726   -0.6019    0.0000 H       1  UNL1        0.0322
     39 H           9.4006    0.1518    0.0000 H       1  UNL1        0.0322
     40 H           5.3539   -0.6827    0.0000 H       1  UNL1        0.0657
     41 H          10.2166   -1.6058    0.0000 H       1  UNL1        0.0657
     42 H           8.6041   -3.9906    0.0000 H       1  UNL1        0.0691
     43 H           5.7720    2.1655    0.0000 H       1  UNL1        0.0691
     44 H           5.3072   -0.5351    0.0000 H       1  UNL1        0.0623
     45 H           5.0112   -3.3254    0.0000 H       1  UNL1        0.0623
     46 H          10.1709    0.9124    0.0000 H       1  UNL1        0.0622
     47 H           7.6429    2.1298    0.0000 H       1  UNL1        0.0622
     48 H           7.4377    2.7786    0.0000 H       1  UNL1        0.2921
     49 H           3.6963   -0.3642    0.0000 H       1  UNL1        0.0654
     50 H           3.4003   -3.1545    0.0000 H       1  UNL1        0.0654
     51 H          10.8738    2.3719    0.0000 H       1  UNL1        0.0654
     52 H           8.3458    3.5894    0.0000 H       1  UNL1        0.0654
     53 H          10.3757   -4.0991    0.0000 H       1  UNL1        0.2921
     54 H           4.1287    1.4946    0.0000 H       1  UNL1        0.2921
     55 H           2.0000   -2.1350    0.0000 H       1  UNL1        0.2921
     56 H          10.7444    4.0991    0.0000 H       1  UNL1        0.2921
@<TRIPOS>BOND
     1     1     9    1
     2     1    15    1
     3     2    20    1
     4     2    48    1
     5     3    22    1
     6     3    53    1
     7     4    23    1
     8     4    54    1
     9     5    33    1
    10     5    55    1
    11     6    34    1
    12     6    56    1
    13     7     8    1
    14     7     9    1
    15     7    11    1
    16     7    35    1
    17     8    13   ar
    18     8    15   ar
    19     9    16    1
    20     9    36    1
    21    10    12    1
    22    10    14    1
    23    10    17    1
    24    10    37    1
    25    11    14   ar
    26    11    18   ar
    27    12    13    1
    28    12    38    1
    29    12    39    1
    30    13    19   ar
    31    14    20   ar
    32    15    21   ar
    33    16    25   ar
    34    16    26   ar
    35    17    27   ar
    36    17    28   ar
    37    18    23   ar
    38    18    40    1
    39    19    22   ar
    40    19    41    1
    41    20    24   ar
    42    21    22   ar
    43    21    42    1
    44    23    24   ar
    45    24    43    1
    46    25    29   ar
    47    25    44    1
    48    26    30   ar
    49    26    45    1
    50    27    31   ar
    51    27    46    1
    52    28    32   ar
    53    28    47    1
    54    29    33   ar
    55    29    49    1
    56    30    33   ar
    57    30    50    1
    58    31    34   ar
    59    31    51    1
    60    32    34   ar
    61    32    52    1
