@<TRIPOS>MOLECULE
IMPHY015347
 57 57 0 0 0
SMALL
GASTEIGER

@<TRIPOS>ATOM
      1 S           2.8090    3.1918    0.0000 S.2     1  UNL1       -0.1013
      2 C           8.0460   -0.3910    0.0000 C.3     1  UNL1       -0.0531
      3 C           8.2539   -1.3691    0.0000 C.3     1  UNL1       -0.0531
      4 C           7.0949   -0.0819    0.0000 C.3     1  UNL1       -0.0531
      5 C           9.2050   -1.6781    0.0000 C.3     1  UNL1       -0.0531
      6 C           6.8870    0.8962    0.0000 C.3     1  UNL1       -0.0531
      7 C           9.4129   -2.6563    0.0000 C.3     1  UNL1       -0.0531
      8 C           5.9360    1.2052    0.0000 C.3     1  UNL1       -0.0530
      9 C          10.3639   -2.9653    0.0000 C.3     1  UNL1       -0.0531
     10 C           5.7281    2.1834    0.0000 C.3     1  UNL1       -0.0527
     11 C          10.5718   -3.9434    0.0000 C.3     1  UNL1       -0.0531
     12 C           4.7770    2.4924    0.0000 C.3     1  UNL1       -0.0486
     13 C          11.5229   -4.2525    0.0000 C.3     1  UNL1       -0.0533
     14 C           4.5691    3.4705    0.0000 C.3     1  UNL1       -0.0212
     15 C          11.7308   -5.2306    0.0000 C.3     1  UNL1       -0.0559
     16 C           3.6180    3.7796    0.0000 C.ar    1  UNL1       -0.0073
     17 C          12.6819   -5.5396    0.0000 C.3     1  UNL1       -0.0653
     18 C           3.3090    4.7306    0.0000 C.ar    1  UNL1       -0.0403
     19 C           2.3090    4.7306    0.0000 C.ar    1  UNL1       -0.0515
     20 C           3.8968    5.5396    0.0000 C.3     1  UNL1       -0.0389
     21 C           2.0000    3.7796    0.0000 C.ar    1  UNL1       -0.0238
     22 H           8.6656   -0.3693    0.0000 H       1  UNL1        0.0265
     23 H           8.1323    0.2230    0.0000 H       1  UNL1        0.0265
     24 H           7.6343   -1.3908    0.0000 H       1  UNL1        0.0265
     25 H           8.1676   -1.9831    0.0000 H       1  UNL1        0.0265
     26 H           6.4753   -0.1036    0.0000 H       1  UNL1        0.0265
     27 H           7.0086   -0.6959    0.0000 H       1  UNL1        0.0265
     28 H           9.8246   -1.6565    0.0000 H       1  UNL1        0.0265
     29 H           9.2912   -1.0642    0.0000 H       1  UNL1        0.0265
     30 H           7.5066    0.9178    0.0000 H       1  UNL1        0.0265
     31 H           6.9733    1.5102    0.0000 H       1  UNL1        0.0265
     32 H           8.7932   -2.6779    0.0000 H       1  UNL1        0.0265
     33 H           9.3266   -3.2702    0.0000 H       1  UNL1        0.0265
     34 H           5.3164    1.1836    0.0000 H       1  UNL1        0.0265
     35 H           5.8497    0.5913    0.0000 H       1  UNL1        0.0265
     36 H          10.9836   -2.9436    0.0000 H       1  UNL1        0.0265
     37 H          10.4502   -2.3513    0.0000 H       1  UNL1        0.0265
     38 H           6.3477    2.2050    0.0000 H       1  UNL1        0.0265
     39 H           5.8144    2.7973    0.0000 H       1  UNL1        0.0265
     40 H           9.9522   -3.9651    0.0000 H       1  UNL1        0.0265
     41 H          10.4856   -4.5574    0.0000 H       1  UNL1        0.0265
     42 H           4.1574    2.4707    0.0000 H       1  UNL1        0.0269
     43 H           4.6907    1.8784    0.0000 H       1  UNL1        0.0269
     44 H          12.1425   -4.2308    0.0000 H       1  UNL1        0.0265
     45 H          11.6092   -3.6385    0.0000 H       1  UNL1        0.0265
     46 H           5.1887    3.4922    0.0000 H       1  UNL1        0.0318
     47 H           4.6554    4.0845    0.0000 H       1  UNL1        0.0318
     48 H          11.1112   -5.2522    0.0000 H       1  UNL1        0.0263
     49 H          11.6445   -5.8446    0.0000 H       1  UNL1        0.0263
     50 H          12.4903   -6.1293    0.0000 H       1  UNL1        0.0230
     51 H          13.2715   -5.7312    0.0000 H       1  UNL1        0.0230
     52 H          12.8735   -4.9500    0.0000 H       1  UNL1        0.0230
     53 H           1.9446    5.2322    0.0000 H       1  UNL1        0.0626
     54 H           4.3984    5.1752    0.0000 H       1  UNL1        0.0278
     55 H           4.2612    6.0412    0.0000 H       1  UNL1        0.0278
     56 H           3.3952    5.9040    0.0000 H       1  UNL1        0.0278
     57 H           1.4103    3.5880    0.0000 H       1  UNL1        0.0693
@<TRIPOS>BOND
     1     1    16   ar
     2     1    21   ar
     3     2     3    1
     4     2     4    1
     5     2    22    1
     6     2    23    1
     7     3     5    1
     8     3    24    1
     9     3    25    1
    10     4     6    1
    11     4    26    1
    12     4    27    1
    13     5     7    1
    14     5    28    1
    15     5    29    1
    16     6     8    1
    17     6    30    1
    18     6    31    1
    19     7     9    1
    20     7    32    1
    21     7    33    1
    22     8    10    1
    23     8    34    1
    24     8    35    1
    25     9    11    1
    26     9    36    1
    27     9    37    1
    28    10    12    1
    29    10    38    1
    30    10    39    1
    31    11    13    1
    32    11    40    1
    33    11    41    1
    34    12    14    1
    35    12    42    1
    36    12    43    1
    37    13    15    1
    38    13    44    1
    39    13    45    1
    40    14    16    1
    41    14    46    1
    42    14    47    1
    43    15    17    1
    44    15    48    1
    45    15    49    1
    46    16    18   ar
    47    17    50    1
    48    17    51    1
    49    17    52    1
    50    18    19   ar
    51    18    20    1
    52    19    21   ar
    53    19    53    1
    54    20    54    1
    55    20    55    1
    56    20    56    1
    57    21    57    1
