@<TRIPOS>MOLECULE
IMPHY012488
 77 81 0 0 0
SMALL
GASTEIGER

@<TRIPOS>ATOM
      1 O           6.7021   -1.8380    0.0000 O.3     1  UNL1       -0.3876
      2 O           7.3410    1.4183    0.0000 O.3     1  UNL1       -0.3850
      3 O           4.0443   -3.3865    0.0000 O.3     1  UNL1       -0.3821
      4 O           4.9580   -3.9073    0.0000 O.3     1  UNL1       -0.3888
      5 O           9.0448    0.2430    0.0000 O.3     1  UNL1       -0.3823
      6 O           2.6200   -3.8042    0.0000 O.3     1  UNL1       -0.3848
      7 O           9.1656    2.6342    0.0000 O.3     1  UNL1       -0.4548
      8 O           3.1525    0.2190    0.0000 O.2     1  UNL1       -0.2920
      9 O           9.8728    4.2152    0.0000 O.2     1  UNL1       -0.2453
     10 C           6.7021    0.1619    0.0000 C.3     1  UNL1        0.0285
     11 C           6.7021   -0.8381    0.0000 C.3     1  UNL1        0.0774
     12 C           5.8361   -1.3380    0.0000 C.3     1  UNL1       -0.0053
     13 C           4.9701   -0.8381    0.0000 C.3     1  UNL1       -0.0202
     14 C           7.6483    0.4667    0.0000 C.3     1  UNL1        0.1058
     15 C           4.0601   -1.3449    0.0000 C.3     1  UNL1        0.0671
     16 C           5.8361    0.6619    0.0000 C.3     1  UNL1       -0.0420
     17 C           7.6483   -1.1428    0.0000 C.3     1  UNL1       -0.0204
     18 C           4.9701    0.1619    0.0000 C.3     1  UNL1       -0.0482
     19 C           8.2320   -0.3381    0.0000 C.3     1  UNL1       -0.0179
     20 C           5.8522   -2.3796    0.0000 C.3     1  UNL1       -0.0183
     21 C           4.0520   -2.3865    0.0000 C.3     1  UNL1        0.1335
     22 C           4.9541   -2.9073    0.0000 C.3     1  UNL1        0.0879
     23 C           8.4584    1.0531    0.0000 C.3     1  UNL1        0.1293
     24 C           6.3601    1.1016    0.0000 C.3     1  UNL1       -0.0542
     25 C           4.0678   -0.3449    0.0000 C.3     1  UNL1       -0.0494
     26 C           3.1166   -2.9362    0.0000 C.3     1  UNL1        0.1058
     27 C           3.1332   -0.7808    0.0000 C.2     1  UNL1        0.1649
     28 C           9.2684    1.6394    0.0000 C.3     1  UNL1        0.1380
     29 C           7.8720    1.8631    0.0000 C.3     1  UNL1       -0.0298
     30 C           2.1770   -2.3937    0.0000 C.2     1  UNL1       -0.0497
     31 C           2.1854   -1.3088    0.0000 C.2     1  UNL1       -0.0200
     32 C          10.1813    1.2311    0.0000 C.3     1  UNL1        0.0089
     33 C          10.9913    1.8175    0.0000 C.2     1  UNL1       -0.0594
     34 C           9.9756    3.2205    0.0000 C.2     1  UNL1        0.3352
     35 C          10.8885    2.8122    0.0000 C.2     1  UNL1        0.0326
     36 C          11.9041    1.4092    0.0000 C.3     1  UNL1       -0.0429
     37 C          11.6985    3.3986    0.0000 C.3     1  UNL1       -0.0330
     38 H           6.5755   -1.7574    0.0000 H       1  UNL1        0.0332
     39 H           5.7062   -0.4131    0.0000 H       1  UNL1        0.0315
     40 H           6.2346    1.1369    0.0000 H       1  UNL1        0.0272
     41 H           5.4376    1.1369    0.0000 H       1  UNL1        0.0272
     42 H           7.3973   -1.7097    0.0000 H       1  UNL1        0.0294
     43 H           8.1857   -1.4520    0.0000 H       1  UNL1        0.0294
     44 H           4.7580    0.7446    0.0000 H       1  UNL1        0.0269
     45 H           4.3595    0.0543    0.0000 H       1  UNL1        0.0269
     46 H           8.6928   -0.7528    0.0000 H       1  UNL1        0.0295
     47 H           8.6928    0.0767    0.0000 H       1  UNL1        0.0295
     48 H           6.0702   -2.9600    0.0000 H       1  UNL1        0.0295
     49 H           6.4613   -2.2641    0.0000 H       1  UNL1        0.0295
     50 H           5.4928   -3.2142    0.0000 H       1  UNL1        0.0623
     51 H           6.9427    1.3137    0.0000 H       1  UNL1        0.0237
     52 H           6.1480    1.6842    0.0000 H       1  UNL1        0.0237
     53 H           5.7775    0.8896    0.0000 H       1  UNL1        0.0237
     54 H           7.2391   -2.1480    0.0000 H       1  UNL1        0.2102
     55 H           4.6878   -0.3497    0.0000 H       1  UNL1        0.0240
     56 H           4.0726    0.2751    0.0000 H       1  UNL1        0.0240
     57 H           3.4478   -0.3401    0.0000 H       1  UNL1        0.0240
     58 H           3.5576   -3.3721    0.0000 H       1  UNL1        0.0668
     59 H           6.8158    1.7477    0.0000 H       1  UNL1        0.2103
     60 H           8.4925    1.9865    0.0000 H       1  UNL1        0.0767
     61 H           8.3742    2.2267    0.0000 H       1  UNL1        0.0259
     62 H           7.5084    2.3653    0.0000 H       1  UNL1        0.0259
     63 H           7.3698    1.4995    0.0000 H       1  UNL1        0.0259
     64 H           3.7302   -3.9210    0.0000 H       1  UNL1        0.2104
     65 H           1.6389   -2.7016    0.0000 H       1  UNL1        0.0599
     66 H           1.6520   -0.9926    0.0000 H       1  UNL1        0.0650
     67 H           5.4961   -4.2152    0.0000 H       1  UNL1        0.2099
     68 H           9.6615    0.3068    0.0000 H       1  UNL1        0.2104
     69 H           9.8337    0.7177    0.0000 H       1  UNL1        0.0347
     70 H          10.6265    0.7997    0.0000 H       1  UNL1        0.0347
     71 H           2.0000   -3.8066    0.0000 H       1  UNL1        0.2103
     72 H          11.6510    0.8432    0.0000 H       1  UNL1        0.0275
     73 H          12.4701    1.1560    0.0000 H       1  UNL1        0.0275
     74 H          12.1573    1.9752    0.0000 H       1  UNL1        0.0275
     75 H          12.0621    2.8964    0.0000 H       1  UNL1        0.0280
     76 H          12.2007    3.7622    0.0000 H       1  UNL1        0.0280
     77 H          11.3350    3.9008    0.0000 H       1  UNL1        0.0280
@<TRIPOS>BOND
     1    11     1    1
     2     1    54    1
     3    14     2    1
     4     2    59    1
     5    21     3    1
     6     3    64    1
     7    22     4    1
     8     4    67    1
     9    23     5    1
    10     5    68    1
    11    26     6    1
    12     6    71    1
    13     7    28    1
    14     7    34    1
    15     8    27    2
    16     9    34    2
    17    10    11    1
    18    10    14    1
    19    10    16    1
    20    10    24    1
    21    11    12    1
    22    11    17    1
    23    12    13    1
    24    12    20    1
    25    12    38    1
    26    13    15    1
    27    13    18    1
    28    13    39    1
    29    14    19    1
    30    14    23    1
    31    15    21    1
    32    15    25    1
    33    15    27    1
    34    16    18    1
    35    16    40    1
    36    16    41    1
    37    17    19    1
    38    17    42    1
    39    17    43    1
    40    18    44    1
    41    18    45    1
    42    19    46    1
    43    19    47    1
    44    20    22    1
    45    20    48    1
    46    20    49    1
    47    21    22    1
    48    21    26    1
    49    22    50    1
    50    23    28    1
    51    23    29    1
    52    24    51    1
    53    24    52    1
    54    24    53    1
    55    25    55    1
    56    25    56    1
    57    25    57    1
    58    26    30    1
    59    26    58    1
    60    27    31    1
    61    28    32    1
    62    28    60    1
    63    29    61    1
    64    29    62    1
    65    29    63    1
    66    30    31    2
    67    30    65    1
    68    31    66    1
    69    32    33    1
    70    32    69    1
    71    32    70    1
    72    33    35    2
    73    33    36    1
    74    34    35    1
    75    35    37    1
    76    36    72    1
    77    36    73    1
    78    36    74    1
    79    37    75    1
    80    37    76    1
    81    37    77    1
