@<TRIPOS>MOLECULE
IMPHY002881
 123 129 0 0 0
SMALL
GASTEIGER

@<TRIPOS>ATOM
      1 O           6.8671   -2.3970    0.0000 O.3     1  UNL1       -0.3448
      2 O           9.3112   -1.7053    0.0000 O.3     1  UNL1       -0.3944
      3 O           5.1350   -2.3970    0.0000 O.3     1  UNL1       -0.3315
      4 O           5.8747    8.1749    0.0000 O.3     1  UNL1       -0.4802
      5 O           4.3882    7.2858    0.0000 O.2     1  UNL1       -0.2504
      6 O           6.8671   -4.3970    0.0000 O.3     1  UNL1       -0.3378
      7 O           5.1350   -5.3970    0.0000 O.3     1  UNL1       -0.3864
      8 O           3.4030   -4.3970    0.0000 O.3     1  UNL1       -0.3860
      9 O           6.0010   -5.8970    0.0000 O.3     1  UNL1       -0.3405
     10 O           2.5369   -2.8970    0.0000 O.3     1  UNL1       -0.4788
     11 O           3.4030   -1.3970    0.0000 O.2     1  UNL1       -0.2480
     12 O           8.5991   -5.3970    0.0000 O.3     1  UNL1       -0.3841
     13 O           8.5991   -7.3970    0.0000 O.3     1  UNL1       -0.3864
     14 O           6.8671   -8.3970    0.0000 O.3     1  UNL1       -0.3865
     15 O           5.1350   -8.3970    0.0000 O.3     1  UNL1       -0.3924
     16 C           7.7681    2.3032    0.0000 C.3     1  UNL1       -0.0194
     17 C           6.9040    1.7999    0.0000 C.3     1  UNL1       -0.0257
     18 C           6.8920    0.7583    0.0000 C.3     1  UNL1       -0.0249
     19 C           7.7643    3.3032    0.0000 C.3     1  UNL1       -0.0051
     20 C           7.7920    0.2340    0.0000 C.3     1  UNL1       -0.0255
     21 C           8.6801    1.7999    0.0000 C.3     1  UNL1       -0.0463
     22 C           7.8046   -0.8509    0.0000 C.3     1  UNL1        0.0206
     23 C           8.6921    0.7583    0.0000 C.3     1  UNL1       -0.0485
     24 C           6.8963    3.7999    0.0000 C.2     1  UNL1       -0.0634
     25 C           6.8762    4.8413    0.0000 C.3     1  UNL1       -0.0130
     26 C           6.0361    2.2966    0.0000 C.3     1  UNL1       -0.0306
     27 C           5.9421    0.2340    0.0000 C.3     1  UNL1       -0.0447
     28 C           7.7722    5.3725    0.0000 C.3     1  UNL1       -0.0255
     29 C           8.6723    3.8136    0.0000 C.3     1  UNL1       -0.0429
     30 C           8.6763    4.8552    0.0000 C.3     1  UNL1       -0.0463
     31 C           8.7522    2.4807    0.0000 C.3     1  UNL1       -0.0585
     32 C           6.8671   -1.3970    0.0000 C.3     1  UNL1        0.0695
     33 C           6.0279    1.2617    0.0000 C.3     1  UNL1       -0.0590
     34 C           6.0322    3.2965    0.0000 C.2     1  UNL1       -0.0836
     35 C           5.9295   -0.8509    0.0000 C.3     1  UNL1       -0.0254
     36 C           8.7497    3.1334    0.0000 C.3     1  UNL1       -0.0553
     37 C           5.9223    5.3583    0.0000 C.3     1  UNL1       -0.0305
     38 C           7.7764    6.4575    0.0000 C.3     1  UNL1       -0.0461
     39 C           5.9014    6.4431    0.0000 C.3     1  UNL1        0.0654
     40 C           8.8046   -0.8432    0.0000 C.3     1  UNL1        0.0522
     41 C           8.3113   -1.7130    0.0000 C.3     1  UNL1       -0.0548
     42 C           6.8347    6.9964    0.0000 C.3     1  UNL1       -0.0370
     43 C           8.6324    5.8825    0.0000 C.3     1  UNL1       -0.0590
     44 C           4.9015    6.4276    0.0000 C.3     1  UNL1       -0.0494
     45 C           5.3881    7.3013    0.0000 C.2     1  UNL1        0.3107
     46 C           6.0010   -2.8970    0.0000 C.3     1  UNL1        0.1892
     47 C           6.0010   -3.8970    0.0000 C.3     1  UNL1        0.1407
     48 C           5.1350   -4.3970    0.0000 C.3     1  UNL1        0.1149
     49 C           4.2690   -2.8970    0.0000 C.3     1  UNL1        0.1859
     50 C           4.2690   -3.8970    0.0000 C.3     1  UNL1        0.1202
     51 C           6.8671   -5.3970    0.0000 C.3     1  UNL1        0.1885
     52 C           3.4030   -2.3970    0.0000 C.2     1  UNL1        0.3367
     53 C           7.7331   -5.8970    0.0000 C.3     1  UNL1        0.1341
     54 C           7.7331   -6.8970    0.0000 C.3     1  UNL1        0.1141
     55 C           6.0010   -6.8970    0.0000 C.3     1  UNL1        0.1130
     56 C           6.8671   -7.3970    0.0000 C.3     1  UNL1        0.1119
     57 C           5.1350   -7.3970    0.0000 C.3     1  UNL1        0.0730
     58 H           7.6385    1.3721    0.0000 H       1  UNL1        0.0315
     59 H           8.5314   -0.1853    0.0000 H       1  UNL1        0.0313
     60 H           9.2921    1.7009    0.0000 H       1  UNL1        0.0271
     61 H           8.8824    2.3860    0.0000 H       1  UNL1        0.0271
     62 H           8.9079    0.1771    0.0000 H       1  UNL1        0.0268
     63 H           9.3017    0.8715    0.0000 H       1  UNL1        0.0268
     64 H           6.1502    4.3994    0.0000 H       1  UNL1        0.0351
     65 H           5.4251    2.4019    0.0000 H       1  UNL1        0.0310
     66 H           5.8263    1.7131    0.0000 H       1  UNL1        0.0310
     67 H           5.7398    0.8201    0.0000 H       1  UNL1        0.0271
     68 H           5.3300    0.1350    0.0000 H       1  UNL1        0.0271
     69 H           8.8791    3.2291    0.0000 H       1  UNL1        0.0274
     70 H           9.2836    3.9173    0.0000 H       1  UNL1        0.0274
     71 H           9.2868    4.7467    0.0000 H       1  UNL1        0.0271
     72 H           8.8876    5.4381    0.0000 H       1  UNL1        0.0271
     73 H           8.8623    1.8705    0.0000 H       1  UNL1        0.0235
     74 H           9.3624    2.5907    0.0000 H       1  UNL1        0.0235
     75 H           8.6422    3.0908    0.0000 H       1  UNL1        0.0235
     76 H           7.4046   -1.7060    0.0000 H       1  UNL1        0.0603
     77 H           6.3400    1.7974    0.0000 H       1  UNL1        0.0235
     78 H           5.4922    1.5737    0.0000 H       1  UNL1        0.0235
     79 H           5.7158    0.7259    0.0000 H       1  UNL1        0.0235
     80 H           5.4941    3.6045    0.0000 H       1  UNL1        0.0572
     81 H           5.3199   -0.7377    0.0000 H       1  UNL1        0.0290
     82 H           5.7137   -1.4321    0.0000 H       1  UNL1        0.0290
     83 H           8.6444    2.5224    0.0000 H       1  UNL1        0.0238
     84 H           9.3607    3.0281    0.0000 H       1  UNL1        0.0238
     85 H           8.8550    3.7444    0.0000 H       1  UNL1        0.0238
     86 H           5.3095    5.4526    0.0000 H       1  UNL1        0.0282
     87 H           5.7246    4.7706    0.0000 H       1  UNL1        0.0282
     88 H           8.3869    6.3491    0.0000 H       1  UNL1        0.0271
     89 H           7.9877    7.0404    0.0000 H       1  UNL1        0.0271
     90 H           9.3855   -0.6266    0.0000 H       1  UNL1        0.0563
     91 H           8.6922   -0.2334    0.0000 H       1  UNL1        0.0563
     92 H           7.7767   -2.0272    0.0000 H       1  UNL1        0.0237
     93 H           8.6254   -2.2476    0.0000 H       1  UNL1        0.0237
     94 H           8.8458   -1.3989    0.0000 H       1  UNL1        0.0237
     95 H           7.2302    7.4739    0.0000 H       1  UNL1        0.0276
     96 H           6.4319    7.4677    0.0000 H       1  UNL1        0.0276
     97 H           8.9486    5.3492    0.0000 H       1  UNL1        0.0235
     98 H           9.1657    6.1987    0.0000 H       1  UNL1        0.0235
     99 H           8.3162    6.4158    0.0000 H       1  UNL1        0.0235
    100 H           4.8920    7.0476    0.0000 H       1  UNL1        0.0240
    101 H           4.2816    6.4181    0.0000 H       1  UNL1        0.0240
    102 H           4.9111    5.8077    0.0000 H       1  UNL1        0.0240
    103 H           6.0010   -2.2770    0.0000 H       1  UNL1        0.0938
    104 H           9.9312   -1.7005    0.0000 H       1  UNL1        0.2094
    105 H           6.5380   -3.5870    0.0000 H       1  UNL1        0.0675
    106 H           5.5565    8.7070    0.0000 H       1  UNL1        0.2951
    107 H           5.6720   -4.7070    0.0000 H       1  UNL1        0.0648
    108 H           4.2690   -2.2770    0.0000 H       1  UNL1        0.0741
    109 H           3.7320   -3.5870    0.0000 H       1  UNL1        0.0652
    110 H           7.4040   -5.0870    0.0000 H       1  UNL1        0.0938
    111 H           4.5981   -5.7070    0.0000 H       1  UNL1        0.2100
    112 H           3.4030   -5.0170    0.0000 H       1  UNL1        0.2100
    113 H           8.2700   -6.2070    0.0000 H       1  UNL1        0.0671
    114 H           7.7331   -7.5170    0.0000 H       1  UNL1        0.0648
    115 H           5.4641   -6.5870    0.0000 H       1  UNL1        0.0647
    116 H           2.0000   -2.5870    0.0000 H       1  UNL1        0.2951
    117 H           6.3301   -7.7070    0.0000 H       1  UNL1        0.0647
    118 H           9.1360   -5.7070    0.0000 H       1  UNL1        0.2101
    119 H           4.9230   -6.8144    0.0000 H       1  UNL1        0.0584
    120 H           4.5244   -7.5047    0.0000 H       1  UNL1        0.0584
    121 H           8.5991   -8.0170    0.0000 H       1  UNL1        0.2100
    122 H           7.4040   -8.7070    0.0000 H       1  UNL1        0.2100
    123 H           4.5981   -8.7070    0.0000 H       1  UNL1        0.2095
@<TRIPOS>BOND
     1    32     1    1
     2    46     1    1
     3     2    40    1
     4     2   104    1
     5     3    46    1
     6     3    49    1
     7     4    45    1
     8     4   106    1
     9     5    45    2
    10    47     6    1
    11    51     6    1
    12    48     7    1
    13     7   111    1
    14    50     8    1
    15     8   112    1
    16     9    51    1
    17     9    55    1
    18    10    52    1
    19    10   116    1
    20    11    52    2
    21    53    12    1
    22    12   118    1
    23    54    13    1
    24    13   121    1
    25    56    14    1
    26    14   122    1
    27    15    57    1
    28    15   123    1
    29    16    17    1
    30    16    19    1
    31    16    21    1
    32    16    31    1
    33    17    18    1
    34    17    26    1
    35    17    58    1
    36    18    20    1
    37    18    27    1
    38    18    33    1
    39    19    24    1
    40    19    29    1
    41    19    36    1
    42    20    22    1
    43    20    23    1
    44    20    59    1
    45    21    23    1
    46    21    60    1
    47    21    61    1
    48    22    32    1
    49    22    40    1
    50    22    41    1
    51    23    62    1
    52    23    63    1
    53    24    25    1
    54    24    34    2
    55    25    28    1
    56    25    37    1
    57    25    64    1
    58    26    34    1
    59    26    65    1
    60    26    66    1
    61    27    35    1
    62    27    67    1
    63    27    68    1
    64    28    30    1
    65    28    38    1
    66    28    43    1
    67    29    30    1
    68    29    69    1
    69    29    70    1
    70    30    71    1
    71    30    72    1
    72    31    73    1
    73    31    74    1
    74    31    75    1
    75    32    35    1
    76    32    76    1
    77    33    77    1
    78    33    78    1
    79    33    79    1
    80    34    80    1
    81    35    81    1
    82    35    82    1
    83    36    83    1
    84    36    84    1
    85    36    85    1
    86    37    39    1
    87    37    86    1
    88    37    87    1
    89    38    42    1
    90    38    88    1
    91    38    89    1
    92    39    42    1
    93    39    44    1
    94    39    45    1
    95    40    90    1
    96    40    91    1
    97    41    92    1
    98    41    93    1
    99    41    94    1
   100    42    95    1
   101    42    96    1
   102    43    97    1
   103    43    98    1
   104    43    99    1
   105    44   100    1
   106    44   101    1
   107    44   102    1
   108    46    47    1
   109    46   103    1
   110    47    48    1
   111    47   105    1
   112    48    50    1
   113    48   107    1
   114    49    50    1
   115    49    52    1
   116    49   108    1
   117    50   109    1
   118    51    53    1
   119    51   110    1
   120    53    54    1
   121    53   113    1
   122    54    56    1
   123    54   114    1
   124    55    56    1
   125    55    57    1
   126    55   115    1
   127    56   117    1
   128    57   119    1
   129    57   120    1
