@<TRIPOS>MOLECULE
IMPHY011883
 17 17 0 0 0
SMALL
GASTEIGER

@<TRIPOS>ATOM
      1 O           2.5369   -1.4050    0.0000 O.3     1  UNL1       -0.5033
      2 O           4.2690   -2.4050    0.0000 O.3     1  UNL1       -0.5033
      3 O           5.1350    2.0950    0.0000 O.3     1  UNL1       -0.4771
      4 O           3.4030    2.0950    0.0000 O.2     1  UNL1       -0.2451
      5 C           4.2690    0.5950    0.0000 C.ar    1  UNL1        0.0625
      6 C           3.4030    0.0950    0.0000 C.ar    1  UNL1       -0.0026
      7 C           3.4030   -0.9050    0.0000 C.ar    1  UNL1        0.1590
      8 C           5.1350    0.0950    0.0000 C.ar    1  UNL1       -0.0441
      9 C           4.2690   -1.4050    0.0000 C.ar    1  UNL1        0.1583
     10 C           5.1350   -0.9050    0.0000 C.ar    1  UNL1       -0.0158
     11 C           4.2690    1.5950    0.0000 C.2     1  UNL1        0.3369
     12 H           2.8660    0.4050    0.0000 H       1  UNL1        0.0663
     13 H           5.6720    0.4050    0.0000 H       1  UNL1        0.0627
     14 H           5.6720   -1.2150    0.0000 H       1  UNL1        0.0655
     15 H           2.0000   -1.0950    0.0000 H       1  UNL1        0.2923
     16 H           4.8059   -2.7150    0.0000 H       1  UNL1        0.2923
     17 H           5.1350    2.7150    0.0000 H       1  UNL1        0.2954
@<TRIPOS>BOND
     1     1     7    1
     2     1    15    1
     3     2     9    1
     4     2    16    1
     5     3    11    1
     6     3    17    1
     7     4    11    2
     8     5     6   ar
     9     5     8   ar
    10     5    11    1
    11     6     7   ar
    12     6    12    1
    13     7     9   ar
    14     8    10   ar
    15     8    13    1
    16     9    10   ar
    17    10    14    1
