@<TRIPOS>MOLECULE
IMPHY017894
 29 28 0 0 0
SMALL
GASTEIGER

@<TRIPOS>ATOM
      1 O           8.9282   -0.2500    0.0000 O.3     1  UNL1       -0.4804
      2 O           8.0622    1.2500    0.0000 O.2     1  UNL1       -0.2507
      3 C           5.4641   -0.2500    0.0000 C.3     1  UNL1       -0.0523
      4 C           6.3301    0.2500    0.0000 C.3     1  UNL1       -0.0404
      5 C           4.5981    0.2500    0.0000 C.3     1  UNL1       -0.0530
      6 C           7.1962   -0.2500    0.0000 C.3     1  UNL1        0.0535
      7 C           3.7320   -0.2500    0.0000 C.3     1  UNL1       -0.0533
      8 C           2.8660    0.2500    0.0000 C.3     1  UNL1       -0.0559
      9 C           7.1962   -1.2500    0.0000 C.3     1  UNL1       -0.0523
     10 C           8.0622    0.2500    0.0000 C.2     1  UNL1        0.3075
     11 C           2.0000   -0.2500    0.0000 C.3     1  UNL1       -0.0653
     12 H           5.0656   -0.7249    0.0000 H       1  UNL1        0.0265
     13 H           5.8626   -0.7249    0.0000 H       1  UNL1        0.0265
     14 H           6.7287    0.7249    0.0000 H       1  UNL1        0.0273
     15 H           5.9316    0.7249    0.0000 H       1  UNL1        0.0273
     16 H           4.9966    0.7249    0.0000 H       1  UNL1        0.0265
     17 H           4.1996    0.7249    0.0000 H       1  UNL1        0.0265
     18 H           6.4600   -0.6750    0.0000 H       1  UNL1        0.0411
     19 H           3.3335   -0.7249    0.0000 H       1  UNL1        0.0265
     20 H           4.1306   -0.7249    0.0000 H       1  UNL1        0.0265
     21 H           3.2646    0.7249    0.0000 H       1  UNL1        0.0263
     22 H           2.4675    0.7249    0.0000 H       1  UNL1        0.0263
     23 H           6.5762   -1.2500    0.0000 H       1  UNL1        0.0238
     24 H           7.1962   -1.8700    0.0000 H       1  UNL1        0.0238
     25 H           7.8162   -1.2500    0.0000 H       1  UNL1        0.0238
     26 H           1.6900    0.2869    0.0000 H       1  UNL1        0.0230
     27 H           1.4631   -0.5600    0.0000 H       1  UNL1        0.0230
     28 H           2.3100   -0.7869    0.0000 H       1  UNL1        0.0230
     29 H           9.4651    0.0600    0.0000 H       1  UNL1        0.2951
@<TRIPOS>BOND
     1     1    10    1
     2     1    29    1
     3     2    10    2
     4     3     4    1
     5     3     5    1
     6     3    12    1
     7     3    13    1
     8     4     6    1
     9     4    14    1
    10     4    15    1
    11     5     7    1
    12     5    16    1
    13     5    17    1
    14     6     9    1
    15     6    10    1
    16     6    18    1
    17     7     8    1
    18     7    19    1
    19     7    20    1
    20     8    11    1
    21     8    21    1
    22     8    22    1
    23     9    23    1
    24     9    24    1
    25     9    25    1
    26    11    26    1
    27    11    27    1
    28    11    28    1
