@<TRIPOS>MOLECULE
IMPHY014265
 40 39 0 0 0
SMALL
GASTEIGER

@<TRIPOS>ATOM
      1 O           8.0622    1.2500    0.0000 O.3     1  UNL1       -0.4604
      2 O           3.7320    1.7500    0.0000 O.3     1  UNL1       -0.4606
      3 O           8.9282    2.7500    0.0000 O.2     1  UNL1       -0.2512
      4 O           2.8660    0.2500    0.0000 O.2     1  UNL1       -0.2512
      5 C           6.3301    0.2500    0.0000 C.3     1  UNL1       -0.0250
      6 C           7.1962   -0.2500    0.0000 C.3     1  UNL1       -0.0307
      7 C           6.3301    1.2500    0.0000 C.2     1  UNL1       -0.0331
      8 C           7.1962    1.7500    0.0000 C.3     1  UNL1        0.1137
      9 C           7.1962   -1.2500    0.0000 C.2     1  UNL1       -0.0850
     10 C           5.4641    1.7500    0.0000 C.2     1  UNL1       -0.0446
     11 C           8.0622   -1.7500    0.0000 C.2     1  UNL1       -0.0796
     12 C           4.5981    1.2500    0.0000 C.3     1  UNL1        0.1110
     13 C           8.0622   -2.7500    0.0000 C.3     1  UNL1       -0.0440
     14 C           8.9282   -1.2500    0.0000 C.3     1  UNL1       -0.0440
     15 C           8.9282    1.7500    0.0000 C.2     1  UNL1        0.3042
     16 C           2.8660    1.2500    0.0000 C.2     1  UNL1        0.3042
     17 C           9.7942    1.2500    0.0000 C.3     1  UNL1        0.0332
     18 C           2.0000    1.7500    0.0000 C.3     1  UNL1        0.0332
     19 H           5.7196    0.3577    0.0000 H       1  UNL1        0.0314
     20 H           6.1181   -0.3326    0.0000 H       1  UNL1        0.0314
     21 H           7.8067   -0.3577    0.0000 H       1  UNL1        0.0310
     22 H           7.4082    0.3326    0.0000 H       1  UNL1        0.0310
     23 H           7.5947    2.2250    0.0000 H       1  UNL1        0.0745
     24 H           6.7976    2.2250    0.0000 H       1  UNL1        0.0745
     25 H           6.6592   -1.5600    0.0000 H       1  UNL1        0.0572
     26 H           5.4641    2.3700    0.0000 H       1  UNL1        0.0606
     27 H           4.1996    0.7751    0.0000 H       1  UNL1        0.0743
     28 H           4.9966    0.7751    0.0000 H       1  UNL1        0.0743
     29 H           7.4422   -2.7500    0.0000 H       1  UNL1        0.0274
     30 H           8.0622   -3.3700    0.0000 H       1  UNL1        0.0274
     31 H           8.6822   -2.7500    0.0000 H       1  UNL1        0.0274
     32 H           9.2382   -1.7869    0.0000 H       1  UNL1        0.0274
     33 H           9.4651   -0.9400    0.0000 H       1  UNL1        0.0274
     34 H           8.6182   -0.7131    0.0000 H       1  UNL1        0.0274
     35 H           9.4842    0.7131    0.0000 H       1  UNL1        0.0342
     36 H          10.3312    0.9400    0.0000 H       1  UNL1        0.0342
     37 H          10.1042    1.7869    0.0000 H       1  UNL1        0.0342
     38 H           2.3100    2.2869    0.0000 H       1  UNL1        0.0342
     39 H           1.4631    2.0600    0.0000 H       1  UNL1        0.0342
     40 H           1.6900    1.2131    0.0000 H       1  UNL1        0.0342
@<TRIPOS>BOND
     1     1     8    1
     2     1    15    1
     3     2    12    1
     4     2    16    1
     5     3    15    2
     6     4    16    2
     7     5     6    1
     8     5     7    1
     9     5    19    1
    10     5    20    1
    11     6     9    1
    12     6    21    1
    13     6    22    1
    14     7     8    1
    15     7    10    2
    16     8    23    1
    17     8    24    1
    18     9    11    2
    19     9    25    1
    20    10    12    1
    21    10    26    1
    22    11    13    1
    23    11    14    1
    24    12    27    1
    25    12    28    1
    26    13    29    1
    27    13    30    1
    28    13    31    1
    29    14    32    1
    30    14    33    1
    31    14    34    1
    32    15    17    1
    33    16    18    1
    34    17    35    1
    35    17    36    1
    36    17    37    1
    37    18    38    1
    38    18    39    1
    39    18    40    1
