@<TRIPOS>MOLECULE
IMPHY008273
 119 127 0 0 0
SMALL
GASTEIGER

@<TRIPOS>ATOM
      1 O           7.9158    1.9080    0.0000 O.3     1  UNL1       -0.3713
      2 O          12.4754    0.8898    0.0000 O.3     1  UNL1       -0.4796
      3 O          16.1228   -1.9037    0.0000 O.3     1  UNL1       -0.4796
      4 O           7.5557   -1.4042    0.0000 O.3     1  UNL1       -0.3946
      5 O          11.5036    2.8310    0.0000 O.3     1  UNL1       -0.4914
      6 O          20.6782   -0.8898    0.0000 O.3     1  UNL1       -0.4796
      7 O          10.5140   -1.7932    0.0000 O.3     1  UNL1       -0.3943
      8 O          14.3106   -3.0990    0.0000 O.3     1  UNL1       -0.4914
      9 O          15.7656    1.4006    0.0000 O.3     1  UNL1       -0.3943
     10 O          19.7064   -2.8310    0.0000 O.3     1  UNL1       -0.4914
     11 O          18.7168    1.7932    0.0000 O.3     1  UNL1       -0.3943
     12 O           4.1196    2.8137    0.0000 O.3     1  UNL1       -0.4915
     13 O           2.5016    1.6381    0.0000 O.3     1  UNL1       -0.5033
     14 O          24.2454    0.0990    0.0000 O.3     1  UNL1       -0.4914
     15 O          24.2454    2.0990    0.0000 O.3     1  UNL1       -0.5033
     16 C           7.9158    0.2899    0.0000 C.3     1  UNL1        0.0178
     17 C           6.9648    0.5990    0.0000 C.3     1  UNL1       -0.0060
     18 C           8.5036    1.0990    0.0000 C.3     1  UNL1        0.0890
     19 C           6.9648    1.5990    0.0000 C.3     1  UNL1        0.0520
     20 C           9.5036    1.0990    0.0000 C.ar    1  UNL1       -0.0146
     21 C           6.1558    0.0112    0.0000 C.3     1  UNL1       -0.0222
     22 C           8.2249   -0.6611    0.0000 C.3     1  UNL1        0.0500
     23 C          11.6707   -0.5041    0.0000 C.3     1  UNL1        0.0520
     24 C          12.5785   -0.0990    0.0000 C.3     1  UNL1        0.1344
     25 C          11.0036    0.2329    0.0000 C.ar    1  UNL1        0.0074
     26 C          10.0036    0.2329    0.0000 C.ar    1  UNL1       -0.0487
     27 C          11.5036    1.0990    0.0000 C.ar    1  UNL1        0.1664
     28 C          16.1228   -0.2942    0.0000 C.3     1  UNL1        0.0520
     29 C          13.4445   -0.5990    0.0000 C.ar    1  UNL1       -0.0027
     30 C          10.0036    1.9650    0.0000 C.ar    1  UNL1       -0.0106
     31 C          16.7064   -1.0990    0.0000 C.3     1  UNL1        0.1344
     32 C          15.1766   -0.5990    0.0000 C.ar    1  UNL1        0.0074
     33 C           5.2422    0.4179    0.0000 C.ar    1  UNL1       -0.0433
     34 C          11.0036    1.9650    0.0000 C.ar    1  UNL1        0.1622
     35 C          11.4645   -1.4826    0.0000 C.3     1  UNL1        0.0548
     36 C          14.3106   -0.0990    0.0000 C.ar    1  UNL1       -0.0477
     37 C          15.1766   -1.5990    0.0000 C.ar    1  UNL1        0.1664
     38 C          17.7064   -1.0990    0.0000 C.ar    1  UNL1       -0.0027
     39 C          13.4445   -1.5990    0.0000 C.ar    1  UNL1       -0.0096
     40 C          19.8735    0.5041    0.0000 C.3     1  UNL1        0.0520
     41 C          16.4335    0.6563    0.0000 C.3     1  UNL1        0.0548
     42 C          14.3106   -2.0990    0.0000 C.ar    1  UNL1        0.1622
     43 C          19.2064   -0.2329    0.0000 C.ar    1  UNL1        0.0074
     44 C          20.7813    0.0990    0.0000 C.3     1  UNL1        0.1344
     45 C          18.2064   -0.2329    0.0000 C.ar    1  UNL1       -0.0477
     46 C          19.7064   -1.0990    0.0000 C.ar    1  UNL1        0.1664
     47 C           5.1377    1.4124    0.0000 C.ar    1  UNL1       -0.0131
     48 C           4.4332   -0.1699    0.0000 C.ar    1  UNL1       -0.0549
     49 C          18.2064   -1.9650    0.0000 C.ar    1  UNL1       -0.0096
     50 C          19.2064   -1.9650    0.0000 C.ar    1  UNL1        0.1622
     51 C          19.6673    1.4826    0.0000 C.3     1  UNL1        0.0548
     52 C          21.6473    0.5990    0.0000 C.ar    1  UNL1       -0.0030
     53 C           4.2242    1.8192    0.0000 C.ar    1  UNL1        0.1615
     54 C           3.5197    0.2369    0.0000 C.ar    1  UNL1       -0.0163
     55 C           3.4151    1.2314    0.0000 C.ar    1  UNL1        0.1585
     56 C          11.0036    3.6970    0.0000 C.3     1  UNL1        0.0790
     57 C          22.5133    0.0990    0.0000 C.ar    1  UNL1       -0.0096
     58 C          21.6473    1.5990    0.0000 C.ar    1  UNL1       -0.0514
     59 C          13.4445   -3.5990    0.0000 C.3     1  UNL1        0.0790
     60 C          23.3794    0.5990    0.0000 C.ar    1  UNL1        0.1616
     61 C          22.5133    2.0990    0.0000 C.ar    1  UNL1       -0.0161
     62 C          19.2064   -3.6970    0.0000 C.3     1  UNL1        0.0790
     63 C          23.3794    1.5990    0.0000 C.ar    1  UNL1        0.1585
     64 C           3.2061    3.2204    0.0000 C.3     1  UNL1        0.0790
     65 C          24.2454   -0.9010    0.0000 C.3     1  UNL1        0.0790
     66 H           7.4774   -0.1485    0.0000 H       1  UNL1        0.0355
     67 H           7.0618   -0.0134    0.0000 H       1  UNL1        0.0330
     68 H           8.7851    1.6514    0.0000 H       1  UNL1        0.0650
     69 H           6.8359    2.2054    0.0000 H       1  UNL1        0.0563
     70 H           6.3482    1.5342    0.0000 H       1  UNL1        0.0563
     71 H           5.8091   -0.5028    0.0000 H       1  UNL1        0.0317
     72 H           6.6018   -0.4195    0.0000 H       1  UNL1        0.0317
     73 H           8.6066   -1.1497    0.0000 H       1  UNL1        0.0561
     74 H           8.7723   -0.3700    0.0000 H       1  UNL1        0.0561
     75 H          11.0722   -0.6658    0.0000 H       1  UNL1        0.0412
     76 H          12.5463   -0.7181    0.0000 H       1  UNL1        0.0791
     77 H           9.6936   -0.3040    0.0000 H       1  UNL1        0.0625
     78 H          15.6853    0.1451    0.0000 H       1  UNL1        0.0412
     79 H           9.6936    2.5019    0.0000 H       1  UNL1        0.0659
     80 H          16.9881   -1.6513    0.0000 H       1  UNL1        0.0791
     81 H          11.5518   -2.0964    0.0000 H       1  UNL1        0.0564
     82 H          12.0842   -1.5032    0.0000 H       1  UNL1        0.0564
     83 H          14.3106    0.5210    0.0000 H       1  UNL1        0.0625
     84 H          12.9076   -1.9090    0.0000 H       1  UNL1        0.0659
     85 H          20.3558    0.8936    0.0000 H       1  UNL1        0.0412
     86 H          16.9804    0.3643    0.0000 H       1  UNL1        0.0564
     87 H          16.8160    1.1442    0.0000 H       1  UNL1        0.0564
     88 H           7.7473   -1.9939    0.0000 H       1  UNL1        0.2094
     89 H          20.7491    0.7181    0.0000 H       1  UNL1        0.0791
     90 H          17.8964    0.3040    0.0000 H       1  UNL1        0.0625
     91 H           5.6393    1.7769    0.0000 H       1  UNL1        0.0658
     92 H           4.4980   -0.7865    0.0000 H       1  UNL1        0.0621
     93 H          17.8964   -2.5019    0.0000 H       1  UNL1        0.0659
     94 H          20.2869    1.5032    0.0000 H       1  UNL1        0.0564
     95 H          19.7546    2.0964    0.0000 H       1  UNL1        0.0564
     96 H          10.3861   -2.3999    0.0000 H       1  UNL1        0.2094
     97 H           3.0181   -0.1276    0.0000 H       1  UNL1        0.0655
     98 H          15.9582    1.9899    0.0000 H       1  UNL1        0.2094
     99 H          11.5406    4.0070    0.0000 H       1  UNL1        0.0660
    100 H          10.6936    4.2340    0.0000 H       1  UNL1        0.0660
    101 H          10.4667    3.3870    0.0000 H       1  UNL1        0.0660
    102 H          22.5133   -0.5210    0.0000 H       1  UNL1        0.0659
    103 H          21.1104    1.9090    0.0000 H       1  UNL1        0.0623
    104 H          18.5889    2.3999    0.0000 H       1  UNL1        0.2094
    105 H          13.1345   -3.0620    0.0000 H       1  UNL1        0.0660
    106 H          12.9076   -3.9090    0.0000 H       1  UNL1        0.0660
    107 H          13.7545   -4.1359    0.0000 H       1  UNL1        0.0660
    108 H          22.5133    2.7190    0.0000 H       1  UNL1        0.0655
    109 H          18.6695   -3.3870    0.0000 H       1  UNL1        0.0660
    110 H          18.8964   -4.2340    0.0000 H       1  UNL1        0.0660
    111 H          19.7433   -4.0070    0.0000 H       1  UNL1        0.0660
    112 H           2.0000    1.2737    0.0000 H       1  UNL1        0.2923
    113 H           3.4583    3.7868    0.0000 H       1  UNL1        0.0660
    114 H           2.6397    3.4726    0.0000 H       1  UNL1        0.0660
    115 H           2.9539    2.6540    0.0000 H       1  UNL1        0.0660
    116 H          24.2454    2.7190    0.0000 H       1  UNL1        0.2923
    117 H          23.6254   -0.9010    0.0000 H       1  UNL1        0.0660
    118 H          24.2454   -1.5210    0.0000 H       1  UNL1        0.0660
    119 H          24.8654   -0.9010    0.0000 H       1  UNL1        0.0660
@<TRIPOS>BOND
     1     1    18    1
     2     1    19    1
     3     2    24    1
     4     2    27    1
     5     3    31    1
     6     3    37    1
     7     4    22    1
     8     4    88    1
     9     5    34    1
    10     5    56    1
    11     6    44    1
    12     6    46    1
    13     7    35    1
    14     7    96    1
    15     8    42    1
    16     8    59    1
    17     9    41    1
    18     9    98    1
    19    10    50    1
    20    10    62    1
    21    11    51    1
    22    11   104    1
    23    12    53    1
    24    12    64    1
    25    13    55    1
    26    13   112    1
    27    14    60    1
    28    14    65    1
    29    15    63    1
    30    15   116    1
    31    16    17    1
    32    16    18    1
    33    16    22    1
    34    16    66    1
    35    17    19    1
    36    17    21    1
    37    17    67    1
    38    18    20    1
    39    18    68    1
    40    19    69    1
    41    19    70    1
    42    20    26   ar
    43    20    30   ar
    44    21    33    1
    45    21    71    1
    46    21    72    1
    47    22    73    1
    48    22    74    1
    49    23    24    1
    50    23    25    1
    51    23    35    1
    52    23    75    1
    53    24    29    1
    54    24    76    1
    55    25    26   ar
    56    25    27   ar
    57    26    77    1
    58    27    34   ar
    59    28    31    1
    60    28    32    1
    61    28    41    1
    62    28    78    1
    63    29    36   ar
    64    29    39   ar
    65    30    34   ar
    66    30    79    1
    67    31    38    1
    68    31    80    1
    69    32    36   ar
    70    32    37   ar
    71    33    47   ar
    72    33    48   ar
    73    35    81    1
    74    35    82    1
    75    36    83    1
    76    37    42   ar
    77    38    45   ar
    78    38    49   ar
    79    39    42   ar
    80    39    84    1
    81    40    43    1
    82    40    44    1
    83    40    51    1
    84    40    85    1
    85    41    86    1
    86    41    87    1
    87    43    45   ar
    88    43    46   ar
    89    44    52    1
    90    44    89    1
    91    45    90    1
    92    46    50   ar
    93    47    53   ar
    94    47    91    1
    95    48    54   ar
    96    48    92    1
    97    49    50   ar
    98    49    93    1
    99    51    94    1
   100    51    95    1
   101    52    57   ar
   102    52    58   ar
   103    53    55   ar
   104    54    55   ar
   105    54    97    1
   106    56    99    1
   107    56   100    1
   108    56   101    1
   109    57    60   ar
   110    57   102    1
   111    58    61   ar
   112    58   103    1
   113    59   105    1
   114    59   106    1
   115    59   107    1
   116    60    63   ar
   117    61    63   ar
   118    61   108    1
   119    62   109    1
   120    62   110    1
   121    62   111    1
   122    64   113    1
   123    64   114    1
   124    64   115    1
   125    65   117    1
   126    65   118    1
   127    65   119    1
