@<TRIPOS>MOLECULE
IMPHY002839
 41 43 0 0 0
SMALL
GASTEIGER

@<TRIPOS>ATOM
      1 O           6.6498    1.8371    0.0000 O.3     1  UNL1       -0.4927
      2 O           7.0864   -2.5724    0.0000 O.2     1  UNL1       -0.2957
      3 N           4.5274    1.2380    0.0000 N.ar    1  UNL1       -0.3513
      4 C           5.0274   -0.3008    0.0000 C.ar    1  UNL1        0.0117
      5 C           5.3364    0.6502    0.0000 C.ar    1  UNL1        0.0900
      6 C           4.0274   -0.3008    0.0000 C.ar    1  UNL1        0.0075
      7 C           7.0547    0.1138    0.0000 C.ar    1  UNL1        0.0103
      8 C           6.3518    0.8825    0.0000 C.ar    1  UNL1        0.1480
      9 C           3.7183    0.6502    0.0000 C.ar    1  UNL1        0.0476
     10 C           5.7123   -1.0856    0.0000 C.ar    1  UNL1       -0.0413
     11 C           6.7328   -0.8768    0.0000 C.ar    1  UNL1        0.0218
     12 C           8.0321    0.3255    0.0000 C.3     1  UNL1       -0.0051
     13 C           3.3424   -1.0856    0.0000 C.ar    1  UNL1       -0.0520
     14 C           2.7029    0.8825    0.0000 C.ar    1  UNL1       -0.0378
     15 C           8.3374    1.2777    0.0000 C.2     1  UNL1       -0.0808
     16 C           2.3219   -0.8768    0.0000 C.ar    1  UNL1       -0.0611
     17 C           2.0000    0.1138    0.0000 C.ar    1  UNL1       -0.0598
     18 C           7.3991   -1.6226    0.0000 C.2     1  UNL1        0.1506
     19 C           9.3148    1.4894    0.0000 C.2     1  UNL1       -0.0793
     20 C           5.9721    2.5724    0.0000 C.3     1  UNL1        0.0789
     21 C           9.6201    2.4416    0.0000 C.3     1  UNL1       -0.0440
     22 C           9.9867    0.7488    0.0000 C.3     1  UNL1       -0.0440
     23 H           4.5274    1.8580    0.0000 H       1  UNL1        0.1660
     24 H           5.5139   -1.6730    0.0000 H       1  UNL1        0.0631
     25 H           8.0561   -0.2940    0.0000 H       1  UNL1        0.0357
     26 H           8.6464    0.2416    0.0000 H       1  UNL1        0.0357
     27 H           3.5408   -1.6730    0.0000 H       1  UNL1        0.0624
     28 H           2.5182    1.4743    0.0000 H       1  UNL1        0.0638
     29 H           7.9208    1.7369    0.0000 H       1  UNL1        0.0575
     30 H           1.9088   -1.3392    0.0000 H       1  UNL1        0.0618
     31 H           1.3940    0.2450    0.0000 H       1  UNL1        0.0618
     32 H           8.0060   -1.4960    0.0000 H       1  UNL1        0.1081
     33 H           6.4280    2.9926    0.0000 H       1  UNL1        0.0660
     34 H           5.5519    3.0283    0.0000 H       1  UNL1        0.0660
     35 H           5.5162    2.1523    0.0000 H       1  UNL1        0.0660
     36 H          10.2105    2.2523    0.0000 H       1  UNL1        0.0274
     37 H           9.5276    0.3322    0.0000 H       1  UNL1        0.0274
     38 H          10.4034    0.2897    0.0000 H       1  UNL1        0.0274
     39 H          10.4459    1.1655    0.0000 H       1  UNL1        0.0274
     40 H           9.8094    3.0320    0.0000 H       1  UNL1        0.0274
     41 H           9.0297    2.6310    0.0000 H       1  UNL1        0.0274
@<TRIPOS>BOND
     1     1     8    1
     2     1    20    1
     3     2    18    2
     4     3     5   ar
     5     3     9   ar
     6     3    23    1
     7     4     5   ar
     8     4     6   ar
     9     4    10   ar
    10     5     8   ar
    11     6     9   ar
    12     6    13   ar
    13     7     8   ar
    14     7    11   ar
    15     7    12    1
    16     9    14   ar
    17    10    11   ar
    18    10    24    1
    19    11    18    1
    20    12    15    1
    21    12    25    1
    22    12    26    1
    23    13    16   ar
    24    13    27    1
    25    14    17   ar
    26    14    28    1
    27    15    19    2
    28    15    29    1
    29    16    17   ar
    30    16    30    1
    31    17    31    1
    32    18    32    1
    33    19    21    1
    34    19    22    1
    35    20    33    1
    36    20    34    1
    37    20    35    1
    38    21    36    1
    39    21    40    1
    40    21    41    1
    41    22    37    1
    42    22    38    1
    43    22    39    1
