@<TRIPOS>MOLECULE
IMPHY002746
 29 30 0 0 0
SMALL
GASTEIGER

@<TRIPOS>ATOM
      1 O           5.2964    0.3450    0.0000 O.3     1  UNL1       -0.3585
      2 O           5.2958    2.3450    0.0000 O.3     1  UNL1       -0.3921
      3 O           2.1916    2.3130    0.0000 O.3     1  UNL1       -0.3946
      4 O           5.2958   -2.6550    0.0000 O.3     1  UNL1       -0.3949
      5 C           4.4298    0.8450    0.0000 C.3     1  UNL1        0.1269
      6 C           4.4298   -0.1550    0.0000 C.3     1  UNL1        0.1038
      7 C           3.4788    1.1540    0.0000 C.3     1  UNL1        0.0163
      8 C           3.4788   -0.4640    0.0000 C.3     1  UNL1       -0.0204
      9 C           2.8910    0.3450    0.0000 C.3     1  UNL1       -0.0426
     10 C           4.4298   -1.1550    0.0000 C.3     1  UNL1        0.0024
     11 C           4.4298    1.8450    0.0000 C.3     1  UNL1        0.0763
     12 C           3.1697    2.1051    0.0000 C.3     1  UNL1        0.0498
     13 C           5.2958   -1.6550    0.0000 C.3     1  UNL1        0.0469
     14 H           3.9172    1.5924    0.0000 H       1  UNL1        0.0352
     15 H           2.9418   -0.7740    0.0000 H       1  UNL1        0.0294
     16 H           3.7309   -1.0304    0.0000 H       1  UNL1        0.0294
     17 H           2.4302    0.7599    0.0000 H       1  UNL1        0.0270
     18 H           2.4302   -0.0699    0.0000 H       1  UNL1        0.0270
     19 H           3.8192   -1.0473    0.0000 H       1  UNL1        0.0316
     20 H           4.2178   -1.7376    0.0000 H       1  UNL1        0.0316
     21 H           4.2178    2.4276    0.0000 H       1  UNL1        0.0587
     22 H           3.8192    1.7373    0.0000 H       1  UNL1        0.0587
     23 H           3.7837    2.1914    0.0000 H       1  UNL1        0.0561
     24 H           3.1914    2.7247    0.0000 H       1  UNL1        0.0561
     25 H           5.9064   -1.7627    0.0000 H       1  UNL1        0.0558
     26 H           5.5079   -1.0724    0.0000 H       1  UNL1        0.0558
     27 H           5.2958    2.9650    0.0000 H       1  UNL1        0.2095
     28 H           2.0000    2.9026    0.0000 H       1  UNL1        0.2094
     29 H           5.8328   -2.9650    0.0000 H       1  UNL1        0.2094
@<TRIPOS>BOND
     1     1     5    1
     2     1     6    1
     3     2    11    1
     4     2    27    1
     5     3    12    1
     6     3    28    1
     7     4    13    1
     8     4    29    1
     9     5     6    1
    10     5     7    1
    11     5    11    1
    12     6     8    1
    13     6    10    1
    14     7     9    1
    15     7    12    1
    16     7    14    1
    17     8     9    1
    18     8    15    1
    19     8    16    1
    20     9    17    1
    21     9    18    1
    22    10    13    1
    23    10    19    1
    24    10    20    1
    25    11    21    1
    26    11    22    1
    27    12    23    1
    28    12    24    1
    29    13    25    1
    30    13    26    1
