@<TRIPOS>MOLECULE
IMPHY002539
 128 132 0 0 0
SMALL
GASTEIGER

@<TRIPOS>ATOM
      1 O          15.8563   -2.5933    0.0000 O.3     1  UNL1       -0.4608
      2 O          14.9961   -1.0900    0.0000 O.2     1  UNL1       -0.2508
      3 C          20.3834   -1.0410    0.0000 C.3     1  UNL1       -0.0194
      4 C          19.5173   -0.5410    0.0000 C.3     1  UNL1       -0.0257
      5 C          18.6073   -1.0478    0.0000 C.3     1  UNL1       -0.0249
      6 C          21.2494   -0.5410    0.0000 C.3     1  UNL1       -0.0051
      7 C          18.5993   -2.0894    0.0000 C.3     1  UNL1       -0.0268
      8 C          20.3994   -2.0825    0.0000 C.3     1  UNL1       -0.0463
      9 C          21.2494    0.4590    0.0000 C.2     1  UNL1       -0.0634
     10 C          19.5014   -2.6102    0.0000 C.3     1  UNL1       -0.0486
     11 C          17.6639   -2.6391    0.0000 C.3     1  UNL1        0.0055
     12 C          22.1433    0.9937    0.0000 C.3     1  UNL1       -0.0135
     13 C          23.0494    0.4799    0.0000 C.3     1  UNL1       -0.0255
     14 C          19.5173    0.4590    0.0000 C.3     1  UNL1       -0.0306
     15 C          22.1433   -1.0756    0.0000 C.3     1  UNL1       -0.0429
     16 C          17.6805   -0.4837    0.0000 C.3     1  UNL1       -0.0437
     17 C          23.0494   -0.5618    0.0000 C.3     1  UNL1       -0.0463
     18 C          21.0261   -1.8070    0.0000 C.3     1  UNL1       -0.0585
     19 C          16.7242   -2.0966    0.0000 C.3     1  UNL1        0.1084
     20 C          20.3834    0.9590    0.0000 C.2     1  UNL1       -0.0836
     21 C          18.6150   -0.0478    0.0000 C.3     1  UNL1       -0.0590
     22 C          16.7326   -1.0117    0.0000 C.3     1  UNL1       -0.0146
     23 C          21.5915   -1.4806    0.0000 C.3     1  UNL1       -0.0553
     24 C          22.1182    2.0784    0.0000 C.3     1  UNL1       -0.0408
     25 C          23.9932    1.0151    0.0000 C.3     1  UNL1       -0.0466
     26 C          23.0494    2.6353    0.0000 C.3     1  UNL1       -0.0343
     27 C          23.9932    2.1001    0.0000 C.3     1  UNL1       -0.0473
     28 C          17.1672   -3.5071    0.0000 C.3     1  UNL1       -0.0562
     29 C          18.1672   -3.5032    0.0000 C.3     1  UNL1       -0.0562
     30 C          23.9193   -0.0135    0.0000 C.3     1  UNL1       -0.0590
     31 C          23.5393    3.5071    0.0000 C.3     1  UNL1       -0.0598
     32 C          22.5394    3.4955    0.0000 C.3     1  UNL1       -0.0598
     33 C          14.9922   -2.0900    0.0000 C.2     1  UNL1        0.3074
     34 C          14.1243   -2.5866    0.0000 C.3     1  UNL1        0.0449
     35 C          13.2602   -2.0833    0.0000 C.3     1  UNL1       -0.0430
     36 C          12.3922   -2.5799    0.0000 C.3     1  UNL1       -0.0526
     37 C          11.5281   -2.0766    0.0000 C.3     1  UNL1       -0.0530
     38 C          10.6602   -2.5733    0.0000 C.3     1  UNL1       -0.0531
     39 C           9.7961   -2.0699    0.0000 C.3     1  UNL1       -0.0531
     40 C           8.9282   -2.5666    0.0000 C.3     1  UNL1       -0.0531
     41 C           8.0641   -2.0632    0.0000 C.3     1  UNL1       -0.0531
     42 C           7.1961   -2.5599    0.0000 C.3     1  UNL1       -0.0531
     43 C           6.3320   -2.0566    0.0000 C.3     1  UNL1       -0.0531
     44 C           5.4641   -2.5532    0.0000 C.3     1  UNL1       -0.0531
     45 C           4.6000   -2.0499    0.0000 C.3     1  UNL1       -0.0531
     46 C           3.7320   -2.5466    0.0000 C.3     1  UNL1       -0.0533
     47 C           2.8680   -2.0432    0.0000 C.3     1  UNL1       -0.0559
     48 C           2.0000   -2.5399    0.0000 C.3     1  UNL1       -0.0653
     49 H          20.2535   -0.1160    0.0000 H       1  UNL1        0.0315
     50 H          18.6026   -2.9394    0.0000 H       1  UNL1        0.0312
     51 H          20.6175   -2.6629    0.0000 H       1  UNL1        0.0271
     52 H          21.0086   -1.9670    0.0000 H       1  UNL1        0.0271
     53 H          19.1041   -3.0862    0.0000 H       1  UNL1        0.0268
     54 H          19.9023   -3.0831    0.0000 H       1  UNL1        0.0268
     55 H          22.8728    1.4300    0.0000 H       1  UNL1        0.0351
     56 H          19.3053    1.0416    0.0000 H       1  UNL1        0.0310
     57 H          18.9068    0.3514    0.0000 H       1  UNL1        0.0310
     58 H          21.7387   -1.5454    0.0000 H       1  UNL1        0.0274
     59 H          22.5370   -1.5546    0.0000 H       1  UNL1        0.0274
     60 H          18.0887   -0.0171    0.0000 H       1  UNL1        0.0272
     61 H          17.2906   -0.0017    0.0000 H       1  UNL1        0.0272
     62 H          23.2585   -1.1455    0.0000 H       1  UNL1        0.0271
     63 H          23.6603   -0.4557    0.0000 H       1  UNL1        0.0271
     64 H          20.5512   -2.2055    0.0000 H       1  UNL1        0.0235
     65 H          21.4247   -2.2820    0.0000 H       1  UNL1        0.0235
     66 H          21.5011   -1.4085    0.0000 H       1  UNL1        0.0235
     67 H          16.1891   -1.7835    0.0000 H       1  UNL1        0.0739
     68 H          20.3834    1.5790    0.0000 H       1  UNL1        0.0572
     69 H          19.2350   -0.0526    0.0000 H       1  UNL1        0.0235
     70 H          18.6198    0.5721    0.0000 H       1  UNL1        0.0235
     71 H          17.9951   -0.0431    0.0000 H       1  UNL1        0.0235
     72 H          16.5281   -0.4264    0.0000 H       1  UNL1        0.0301
     73 H          16.1210   -1.1131    0.0000 H       1  UNL1        0.0301
     74 H          21.0089   -1.6927    0.0000 H       1  UNL1        0.0238
     75 H          21.8036   -2.0632    0.0000 H       1  UNL1        0.0238
     76 H          22.1741   -1.2685    0.0000 H       1  UNL1        0.0238
     77 H          21.8957    2.6571    0.0000 H       1  UNL1        0.0276
     78 H          21.5100    1.9582    0.0000 H       1  UNL1        0.0276
     79 H          24.2022    0.4314    0.0000 H       1  UNL1        0.0271
     80 H          24.6040    1.1212    0.0000 H       1  UNL1        0.0271
     81 H          24.6040    1.9940    0.0000 H       1  UNL1        0.0271
     82 H          24.2022    2.6838    0.0000 H       1  UNL1        0.0271
     83 H          16.6291   -3.1992    0.0000 H       1  UNL1        0.0236
     84 H          16.8593   -4.0452    0.0000 H       1  UNL1        0.0236
     85 H          17.7054   -3.8150    0.0000 H       1  UNL1        0.0236
     86 H          17.6315   -3.8153    0.0000 H       1  UNL1        0.0236
     87 H          18.4793   -4.0390    0.0000 H       1  UNL1        0.0236
     88 H          18.7030   -3.1912    0.0000 H       1  UNL1        0.0236
     89 H          23.6134   -0.5528    0.0000 H       1  UNL1        0.0235
     90 H          24.4586   -0.3193    0.0000 H       1  UNL1        0.0235
     91 H          24.2251    0.5259    0.0000 H       1  UNL1        0.0235
     92 H          24.0798    3.2033    0.0000 H       1  UNL1        0.0235
     93 H          23.8431    4.0476    0.0000 H       1  UNL1        0.0235
     94 H          22.9989    3.8108    0.0000 H       1  UNL1        0.0235
     95 H          23.0727    3.8117    0.0000 H       1  UNL1        0.0235
     96 H          22.2232    4.0288    0.0000 H       1  UNL1        0.0235
     97 H          22.0061    3.1793    0.0000 H       1  UNL1        0.0235
     98 H          13.7239   -3.0600    0.0000 H       1  UNL1        0.0377
     99 H          14.5210   -3.0631    0.0000 H       1  UNL1        0.0377
    100 H          13.6605   -1.6099    0.0000 H       1  UNL1        0.0270
    101 H          12.8635   -1.6068    0.0000 H       1  UNL1        0.0270
    102 H          11.9919   -3.0534    0.0000 H       1  UNL1        0.0265
    103 H          12.7889   -3.0564    0.0000 H       1  UNL1        0.0265
    104 H          11.9285   -1.6032    0.0000 H       1  UNL1        0.0265
    105 H          11.1314   -1.6001    0.0000 H       1  UNL1        0.0265
    106 H          10.2598   -3.0467    0.0000 H       1  UNL1        0.0265
    107 H          11.0569   -3.0497    0.0000 H       1  UNL1        0.0265
    108 H          10.1965   -1.5965    0.0000 H       1  UNL1        0.0265
    109 H           9.3994   -1.5934    0.0000 H       1  UNL1        0.0265
    110 H           8.5278   -3.0400    0.0000 H       1  UNL1        0.0265
    111 H           9.3248   -3.0431    0.0000 H       1  UNL1        0.0265
    112 H           8.4644   -1.5898    0.0000 H       1  UNL1        0.0265
    113 H           7.6674   -1.5868    0.0000 H       1  UNL1        0.0265
    114 H           6.7958   -3.0333    0.0000 H       1  UNL1        0.0265
    115 H           7.5928   -3.0364    0.0000 H       1  UNL1        0.0265
    116 H           6.7324   -1.5832    0.0000 H       1  UNL1        0.0265
    117 H           5.9353   -1.5801    0.0000 H       1  UNL1        0.0265
    118 H           5.0637   -3.0266    0.0000 H       1  UNL1        0.0265
    119 H           5.8608   -3.0297    0.0000 H       1  UNL1        0.0265
    120 H           5.0003   -1.5765    0.0000 H       1  UNL1        0.0265
    121 H           4.2033   -1.5734    0.0000 H       1  UNL1        0.0265
    122 H           3.3317   -3.0200    0.0000 H       1  UNL1        0.0265
    123 H           4.1287   -3.0230    0.0000 H       1  UNL1        0.0265
    124 H           3.2683   -1.5698    0.0000 H       1  UNL1        0.0263
    125 H           2.4712   -1.5667    0.0000 H       1  UNL1        0.0263
    126 H           1.6921   -2.0018    0.0000 H       1  UNL1        0.0230
    127 H           1.4619   -2.8478    0.0000 H       1  UNL1        0.0230
    128 H           2.3079   -3.0780    0.0000 H       1  UNL1        0.0230
@<TRIPOS>BOND
     1    19     1    1
     2     1    33    1
     3     2    33    2
     4     3     4    1
     5     3     6    1
     6     3     8    1
     7     3    18    1
     8     4     5    1
     9     4    14    1
    10     4    49    1
    11     5     7    1
    12     5    16    1
    13     5    21    1
    14     6     9    1
    15     6    15    1
    16     6    23    1
    17     7    10    1
    18     7    11    1
    19     7    50    1
    20     8    10    1
    21     8    51    1
    22     8    52    1
    23     9    12    1
    24     9    20    2
    25    10    53    1
    26    10    54    1
    27    11    19    1
    28    11    28    1
    29    11    29    1
    30    12    13    1
    31    12    24    1
    32    12    55    1
    33    13    17    1
    34    13    25    1
    35    13    30    1
    36    14    20    1
    37    14    56    1
    38    14    57    1
    39    15    17    1
    40    15    58    1
    41    15    59    1
    42    16    22    1
    43    16    60    1
    44    16    61    1
    45    17    62    1
    46    17    63    1
    47    18    64    1
    48    18    65    1
    49    18    66    1
    50    19    22    1
    51    19    67    1
    52    20    68    1
    53    21    69    1
    54    21    70    1
    55    21    71    1
    56    22    72    1
    57    22    73    1
    58    23    74    1
    59    23    75    1
    60    23    76    1
    61    24    26    1
    62    24    77    1
    63    24    78    1
    64    25    27    1
    65    25    79    1
    66    25    80    1
    67    26    27    1
    68    26    31    1
    69    26    32    1
    70    27    81    1
    71    27    82    1
    72    28    83    1
    73    28    84    1
    74    28    85    1
    75    29    86    1
    76    29    87    1
    77    29    88    1
    78    30    89    1
    79    30    90    1
    80    30    91    1
    81    31    92    1
    82    31    93    1
    83    31    94    1
    84    32    95    1
    85    32    96    1
    86    32    97    1
    87    33    34    1
    88    34    35    1
    89    34    98    1
    90    34    99    1
    91    35    36    1
    92    35   100    1
    93    35   101    1
    94    36    37    1
    95    36   102    1
    96    36   103    1
    97    37    38    1
    98    37   104    1
    99    37   105    1
   100    38    39    1
   101    38   106    1
   102    38   107    1
   103    39    40    1
   104    39   108    1
   105    39   109    1
   106    40    41    1
   107    40   110    1
   108    40   111    1
   109    41    42    1
   110    41   112    1
   111    41   113    1
   112    42    43    1
   113    42   114    1
   114    42   115    1
   115    43    44    1
   116    43   116    1
   117    43   117    1
   118    44    45    1
   119    44   118    1
   120    44   119    1
   121    45    46    1
   122    45   120    1
   123    45   121    1
   124    46    47    1
   125    46   122    1
   126    46   123    1
   127    47    48    1
   128    47   124    1
   129    47   125    1
   130    48   126    1
   131    48   127    1
   132    48   128    1
