@<TRIPOS>MOLECULE
IMPHY014193
 96 104 0 0 0
SMALL
GASTEIGER

@<TRIPOS>ATOM
      1 O           5.2760    2.6608    0.0000 O.3     1  UNL1       -0.3578
      2 O           9.4103    3.5902    0.0000 O.3     1  UNL1       -0.3329
      3 O           3.6747    1.4800    0.0000 O.3     1  UNL1       -0.3730
      4 O           7.2817   -0.6809    0.0000 O.3     1  UNL1       -0.3391
      5 O           4.7578    2.4768    0.0000 O.3     1  UNL1       -0.3886
      6 O           6.4116   -1.6974    0.0000 O.3     1  UNL1       -0.4575
      7 O           8.3560    0.0186    0.0000 O.3     1  UNL1       -0.3560
      8 O           7.2785    4.8907    0.0000 O.3     1  UNL1       -0.3778
      9 O           9.7029    5.4648    0.0000 O.2     1  UNL1       -0.4680
     10 O           2.8718   -1.7111    0.0000 O.3     1  UNL1       -0.4608
     11 O           8.7647    1.1405    0.0000 O.3     1  UNL1       -0.4642
     12 O           7.1836    1.8477    0.0000 O.2     1  UNL1       -0.2447
     13 O           5.5630   -3.2073    0.0000 O.2     1  UNL1       -0.2456
     14 O           3.7320   -3.2144    0.0000 O.2     1  UNL1       -0.2512
     15 C           6.2162    2.3188    0.0000 C.3     1  UNL1        0.1334
     16 C           6.3898    1.3340    0.0000 C.3     1  UNL1        0.0394
     17 C           6.0425    3.3036    0.0000 C.3     1  UNL1        0.1055
     18 C           6.3898    0.3340    0.0000 C.3     1  UNL1        0.0462
     19 C           5.5238   -0.1660    0.0000 C.3     1  UNL1        0.0462
     20 C           7.6991    2.4489    0.0000 C.3     1  UNL1        0.0955
     21 C           7.5254    3.4337    0.0000 C.3     1  UNL1        0.0316
     22 C           4.6578    0.3340    0.0000 C.3     1  UNL1        0.0102
     23 C           5.5238    1.8340    0.0000 C.3     1  UNL1        0.0902
     24 C           4.6578    1.3340    0.0000 C.3     1  UNL1        0.0893
     25 C           8.7820    1.8697    0.0000 C.3     1  UNL1       -0.0149
     26 C           3.7478   -0.1728    0.0000 C.3     1  UNL1        0.0343
     27 C           7.3616    0.1248    0.0000 C.3     1  UNL1        0.2720
     28 C           5.5399   -1.2075    0.0000 C.3     1  UNL1        0.1153
     29 C           8.2662    4.7343    0.0000 C.3     1  UNL1        0.1545
     30 C           7.1559    0.6912    0.0000 C.3     1  UNL1       -0.0538
     31 C           6.1909   -0.9030    0.0000 C.3     1  UNL1        0.0613
     32 C           5.8689    4.2885    0.0000 C.3     1  UNL1       -0.0326
     33 C           3.7398   -1.2144    0.0000 C.3     1  UNL1        0.1142
     34 C           9.2539    4.5779    0.0000 C.3     1  UNL1        0.2342
     35 C           3.1610    0.6293    0.0000 C.3     1  UNL1        0.0572
     36 C           4.6418   -1.7352    0.0000 C.3     1  UNL1        0.0228
     37 C           2.7478   -0.1612    0.0000 C.3     1  UNL1       -0.0537
     38 C           8.1133    5.7165    0.0000 C.2     1  UNL1       -0.0121
     39 C           7.7700    1.0377    0.0000 C.2     1  UNL1        0.3675
     40 C           8.9994    6.1671    0.0000 C.2     1  UNL1        0.0870
     41 C           6.4232   -2.6974    0.0000 C.2     1  UNL1        0.3322
     42 C           2.8680   -2.7111    0.0000 C.2     1  UNL1        0.3042
     43 C           9.3511    0.3304    0.0000 C.3     1  UNL1        0.0818
     44 C           7.2949   -3.1873    0.0000 C.2     1  UNL1        0.0231
     45 C           2.0000   -3.2077    0.0000 C.3     1  UNL1        0.0332
     46 C           7.3065   -4.1872    0.0000 C.2     1  UNL1       -0.0478
     47 C           8.1782   -4.6772    0.0000 C.ar    1  UNL1       -0.0248
     48 C           8.1898   -5.6771    0.0000 C.ar    1  UNL1       -0.0546
     49 C           9.0384   -4.1672    0.0000 C.ar    1  UNL1       -0.0546
     50 C           9.0616   -6.1671    0.0000 C.ar    1  UNL1       -0.0612
     51 C           9.9102   -4.6572    0.0000 C.ar    1  UNL1       -0.0612
     52 C           9.9217   -5.6571    0.0000 C.ar    1  UNL1       -0.0617
     53 H           7.0511    0.8681    0.0000 H       1  UNL1        0.0373
     54 H           7.8467    1.6118    0.0000 H       1  UNL1        0.0627
     55 H           7.3778    4.2708    0.0000 H       1  UNL1        0.0363
     56 H           4.6578   -0.5160    0.0000 H       1  UNL1        0.0341
     57 H           5.8794    2.3419    0.0000 H       1  UNL1        0.0626
     58 H           4.4988    2.1690    0.0000 H       1  UNL1        0.0625
     59 H           8.7189    1.2529    0.0000 H       1  UNL1        0.0296
     60 H           9.3765    2.0455    0.0000 H       1  UNL1        0.0296
     61 H           5.5458   -1.8274    0.0000 H       1  UNL1        0.0742
     62 H           6.7574    0.2163    0.0000 H       1  UNL1        0.0237
     63 H           7.6308    0.2927    0.0000 H       1  UNL1        0.0237
     64 H           7.5544    1.1662    0.0000 H       1  UNL1        0.0237
     65 H           5.6647   -1.2309    0.0000 H       1  UNL1        0.0568
     66 H           6.4204   -1.4790    0.0000 H       1  UNL1        0.0568
     67 H           6.4795    4.3961    0.0000 H       1  UNL1        0.0258
     68 H           5.7612    4.8990    0.0000 H       1  UNL1        0.0258
     69 H           5.2583    4.1808    0.0000 H       1  UNL1        0.0258
     70 H           3.7386   -1.8344    0.0000 H       1  UNL1        0.0741
     71 H          10.0934    4.4449    0.0000 H       1  UNL1        0.1090
     72 H           2.6770    1.0168    0.0000 H       1  UNL1        0.0567
     73 H           2.7131    0.2005    0.0000 H       1  UNL1        0.0567
     74 H           4.2445   -2.2112    0.0000 H       1  UNL1        0.0337
     75 H           5.0428   -2.2081    0.0000 H       1  UNL1        0.0337
     76 H           2.7550    0.4587    0.0000 H       1  UNL1        0.0237
     77 H           2.1279   -0.1541    0.0000 H       1  UNL1        0.0237
     78 H           2.7407   -0.7812    0.0000 H       1  UNL1        0.0237
     79 H           4.1752    2.2648    0.0000 H       1  UNL1        0.2099
     80 H           7.5613    5.9990    0.0000 H       1  UNL1        0.0633
     81 H           8.6072   -0.5483    0.0000 H       1  UNL1        0.2133
     82 H           7.0563    5.4696    0.0000 H       1  UNL1        0.2109
     83 H           9.0964    6.7794    0.0000 H       1  UNL1        0.1022
     84 H           8.8488   -0.0331    0.0000 H       1  UNL1        0.0661
     85 H           9.7146   -0.1718    0.0000 H       1  UNL1        0.0661
     86 H           9.8533    0.6940    0.0000 H       1  UNL1        0.0661
     87 H           7.8282   -2.8711    0.0000 H       1  UNL1        0.0689
     88 H           1.6921   -2.6696    0.0000 H       1  UNL1        0.0342
     89 H           1.4619   -3.5156    0.0000 H       1  UNL1        0.0342
     90 H           2.3079   -3.7458    0.0000 H       1  UNL1        0.0342
     91 H           6.7732   -4.5034    0.0000 H       1  UNL1        0.0626
     92 H           7.6565   -5.9933    0.0000 H       1  UNL1        0.0623
     93 H           9.0312   -3.5473    0.0000 H       1  UNL1        0.0623
     94 H           9.0687   -6.7870    0.0000 H       1  UNL1        0.0618
     95 H          10.4435   -4.3410    0.0000 H       1  UNL1        0.0618
     96 H          10.4622   -5.9609    0.0000 H       1  UNL1        0.0618
@<TRIPOS>BOND
     1    15     1    1
     2     1    17    1
     3     2    20    1
     4     2    34    1
     5     3    24    1
     6     3    35    1
     7     4    27    1
     8     4    31    1
     9    23     5    1
    10     5    79    1
    11    28     6    1
    12     6    41    1
    13    27     7    1
    14     7    81    1
    15    29     8    1
    16     8    82    1
    17     9    34    1
    18     9    40    1
    19    33    10    1
    20    10    42    1
    21    11    39    1
    22    11    43    1
    23    12    39    2
    24    13    41    2
    25    14    42    2
    26    15    16    1
    27    15    17    1
    28    15    20    1
    29    16    18    1
    30    16    23    1
    31    16    30    1
    32    17    21    1
    33    17    32    1
    34    18    19    1
    35    18    27    1
    36    18    53    1
    37    19    22    1
    38    19    28    1
    39    19    31    1
    40    20    25    1
    41    20    54    1
    42    21    25    1
    43    21    29    1
    44    21    55    1
    45    22    24    1
    46    22    26    1
    47    22    56    1
    48    23    24    1
    49    23    57    1
    50    24    58    1
    51    25    59    1
    52    25    60    1
    53    26    33    1
    54    26    35    1
    55    26    37    1
    56    27    39    1
    57    28    36    1
    58    28    61    1
    59    29    34    1
    60    29    38    1
    61    30    62    1
    62    30    63    1
    63    30    64    1
    64    31    65    1
    65    31    66    1
    66    32    67    1
    67    32    68    1
    68    32    69    1
    69    33    36    1
    70    33    70    1
    71    34    71    1
    72    35    72    1
    73    35    73    1
    74    36    74    1
    75    36    75    1
    76    37    76    1
    77    37    77    1
    78    37    78    1
    79    38    40    2
    80    38    80    1
    81    40    83    1
    82    41    44    1
    83    42    45    1
    84    43    84    1
    85    43    85    1
    86    43    86    1
    87    44    46    2
    88    44    87    1
    89    45    88    1
    90    45    89    1
    91    45    90    1
    92    46    47    1
    93    46    91    1
    94    47    48   ar
    95    47    49   ar
    96    48    50   ar
    97    48    92    1
    98    49    51   ar
    99    49    93    1
   100    50    52   ar
   101    50    94    1
   102    51    52   ar
   103    51    95    1
   104    52    96    1
