@<TRIPOS>MOLECULE
IMPHY013157
 38 41 0 0 0
SMALL
GASTEIGER

@<TRIPOS>ATOM
      1 O           6.3981   -0.9777    0.0000 O.2     1  UNL1       -0.4583
      2 O          10.8084    0.7176    0.0000 O.3     1  UNL1       -0.4526
      3 O          10.8084    2.3270    0.0000 O.3     1  UNL1       -0.4526
      4 O           4.6497   -2.0123    0.0000 O.3     1  UNL1       -0.4885
      5 O           2.8680   -1.0019    0.0000 O.3     1  UNL1       -0.4913
      6 O           6.3981    2.0223    0.0000 O.2     1  UNL1       -0.2864
      7 C           7.2641    0.5223    0.0000 C.ar    1  UNL1        0.0644
      8 C           8.1301    1.0223    0.0000 C.ar    1  UNL1       -0.0076
      9 C           5.5320    0.5223    0.0000 C.ar    1  UNL1        0.0684
     10 C           5.5320   -0.4777    0.0000 C.ar    1  UNL1        0.1834
     11 C           6.3981    1.0223    0.0000 C.ar    1  UNL1        0.2003
     12 C           9.8622    1.0223    0.0000 C.ar    1  UNL1        0.1668
     13 C           8.9962    0.5223    0.0000 C.ar    1  UNL1       -0.0082
     14 C           9.8622    2.0223    0.0000 C.ar    1  UNL1        0.1663
     15 C           4.6381   -1.0124    0.0000 C.ar    1  UNL1        0.2048
     16 C           8.1301    2.0223    0.0000 C.ar    1  UNL1       -0.0501
     17 C           7.2641   -0.4777    0.0000 C.ar    1  UNL1        0.1040
     18 C           4.6381    1.0570    0.0000 C.ar    1  UNL1       -0.0437
     19 C           8.9962    2.5223    0.0000 C.ar    1  UNL1       -0.0156
     20 C           3.7320   -0.4985    0.0000 C.ar    1  UNL1        0.1652
     21 C           3.7320    0.5431    0.0000 C.ar    1  UNL1       -0.0154
     22 C          11.3920    1.5223    0.0000 C.3     1  UNL1        0.2332
     23 C           3.7895   -2.5223    0.0000 C.3     1  UNL1        0.0791
     24 C           2.0000   -0.5052    0.0000 C.3     1  UNL1        0.0790
     25 H           8.9962   -0.0977    0.0000 H       1  UNL1        0.0661
     26 H           7.5932    2.3323    0.0000 H       1  UNL1        0.0625
     27 H           7.8010   -0.7877    0.0000 H       1  UNL1        0.1037
     28 H           4.6453    1.6769    0.0000 H       1  UNL1        0.0627
     29 H           8.9962    3.1423    0.0000 H       1  UNL1        0.0655
     30 H           3.1963    0.8552    0.0000 H       1  UNL1        0.0655
     31 H          11.8529    1.1076    0.0000 H       1  UNL1        0.1166
     32 H          11.8529    1.9370    0.0000 H       1  UNL1        0.1166
     33 H           3.4733   -1.9890    0.0000 H       1  UNL1        0.0660
     34 H           3.2562   -2.8385    0.0000 H       1  UNL1        0.0660
     35 H           4.1057   -3.0556    0.0000 H       1  UNL1        0.0660
     36 H           2.3079    0.0329    0.0000 H       1  UNL1        0.0660
     37 H           1.4619   -0.1973    0.0000 H       1  UNL1        0.0660
     38 H           1.6921   -1.0433    0.0000 H       1  UNL1        0.0660
@<TRIPOS>BOND
     1     1    10   ar
     2     1    17   ar
     3     2    12    1
     4     2    22    1
     5     3    14    1
     6     3    22    1
     7     4    15    1
     8     4    23    1
     9     5    20    1
    10     5    24    1
    11     6    11    2
    12     7     8    1
    13     7    11   ar
    14     7    17   ar
    15     8    13   ar
    16     8    16   ar
    17     9    10   ar
    18     9    11   ar
    19     9    18   ar
    20    10    15   ar
    21    12    13   ar
    22    12    14   ar
    23    13    25    1
    24    14    19   ar
    25    15    20   ar
    26    16    19   ar
    27    16    26    1
    28    17    27    1
    29    18    21   ar
    30    18    28    1
    31    19    29    1
    32    20    21   ar
    33    21    30    1
    34    22    31    1
    35    22    32    1
    36    23    33    1
    37    23    34    1
    38    23    35    1
    39    24    36    1
    40    24    37    1
    41    24    38    1
