@<TRIPOS>MOLECULE
IMPHY002455
 39 40 0 0 0
SMALL
GASTEIGER

@<TRIPOS>ATOM
      1 O           6.3301    1.7500    0.0000 O.3     1  UNL1       -0.4940
      2 O           3.7320   -0.7500    0.0000 O.3     1  UNL1       -0.3872
      3 O           4.5981   -1.2500    0.0000 O.3     1  UNL1       -0.4946
      4 O           8.0901   -1.2847    0.0000 O.2     1  UNL1       -0.4219
      5 O           9.8602   -1.2741    0.0000 O.2     1  UNL1       -0.2452
      6 C           4.5981    0.7500    0.0000 C.3     1  UNL1        0.0092
      7 C           5.4641    0.2500    0.0000 C.ar    1  UNL1        0.0394
      8 C           3.7320    0.2500    0.0000 C.3     1  UNL1        0.0799
      9 C           6.3301    0.7500    0.0000 C.ar    1  UNL1        0.1374
     10 C           5.4641   -0.7500    0.0000 C.ar    1  UNL1        0.1303
     11 C           7.1962    0.2500    0.0000 C.ar    1  UNL1        0.0597
     12 C           7.1962   -0.7500    0.0000 C.ar    1  UNL1        0.1460
     13 C           6.3301   -1.2500    0.0000 C.ar    1  UNL1        0.0236
     14 C           2.8660    0.7500    0.0000 C.2     1  UNL1       -0.0513
     15 C           8.0901    0.7847    0.0000 C.ar    1  UNL1       -0.0408
     16 C           2.0000    0.2500    0.0000 C.3     1  UNL1       -0.0416
     17 C           8.9962    0.2708    0.0000 C.ar    1  UNL1        0.0237
     18 C           8.9962   -0.7708    0.0000 C.ar    1  UNL1        0.3372
     19 C           2.8660    1.7500    0.0000 C.2     1  UNL1       -0.0973
     20 C           7.1962    2.2500    0.0000 C.3     1  UNL1        0.0788
     21 C           4.5981   -2.2500    0.0000 C.3     1  UNL1        0.0788
     22 H           4.9966    1.2250    0.0000 H       1  UNL1        0.0344
     23 H           4.1996    1.2250    0.0000 H       1  UNL1        0.0344
     24 H           4.2690   -0.0600    0.0000 H       1  UNL1        0.0643
     25 H           6.3301   -1.8700    0.0000 H       1  UNL1        0.0691
     26 H           8.0829    1.4046    0.0000 H       1  UNL1        0.0628
     27 H           1.6900    0.7869    0.0000 H       1  UNL1        0.0275
     28 H           1.4631   -0.0600    0.0000 H       1  UNL1        0.0275
     29 H           2.3100   -0.2869    0.0000 H       1  UNL1        0.0275
     30 H           3.1951   -1.0600    0.0000 H       1  UNL1        0.2102
     31 H           9.5319    0.5829    0.0000 H       1  UNL1        0.0689
     32 H           3.4030    2.0600    0.0000 H       1  UNL1        0.0535
     33 H           2.3291    2.0600    0.0000 H       1  UNL1        0.0535
     34 H           7.5062    1.7131    0.0000 H       1  UNL1        0.0660
     35 H           7.7331    2.5600    0.0000 H       1  UNL1        0.0660
     36 H           6.8862    2.7869    0.0000 H       1  UNL1        0.0660
     37 H           3.9781   -2.2500    0.0000 H       1  UNL1        0.0660
     38 H           4.5981   -2.8700    0.0000 H       1  UNL1        0.0660
     39 H           5.2181   -2.2500    0.0000 H       1  UNL1        0.0660
@<TRIPOS>BOND
     1     1     9    1
     2     1    20    1
     3     8     2    1
     4     2    30    1
     5     3    10    1
     6     3    21    1
     7     4    12   ar
     8     4    18   ar
     9     5    18    2
    10     6     7    1
    11     6     8    1
    12     6    22    1
    13     6    23    1
    14     7     9   ar
    15     7    10   ar
    16     8    14    1
    17     8    24    1
    18     9    11   ar
    19    10    13   ar
    20    11    12   ar
    21    11    15   ar
    22    12    13   ar
    23    13    25    1
    24    14    16    1
    25    14    19    2
    26    15    17   ar
    27    15    26    1
    28    16    27    1
    29    16    28    1
    30    16    29    1
    31    17    18   ar
    32    17    31    1
    33    19    32    1
    34    19    33    1
    35    20    34    1
    36    20    35    1
    37    20    36    1
    38    21    37    1
    39    21    38    1
    40    21    39    1
