@<TRIPOS>MOLECULE
IMPHY011173
 81 86 0 0 0
SMALL
GASTEIGER

@<TRIPOS>ATOM
      1 O           6.8383   -0.3625    0.0000 O.3     1  UNL1       -0.3633
      2 O          10.2824   -0.8513    0.0000 O.3     1  UNL1       -0.4567
      3 O           3.8185   -0.1857    0.0000 O.3     1  UNL1       -0.4559
      4 O           7.9806    3.7565    0.0000 O.2     1  UNL1       -0.2963
      5 O           4.3137   -1.9247    0.0000 O.2     1  UNL1       -0.2508
      6 O          12.7368    3.3352    0.0000 O.3     1  UNL1       -0.4679
      7 O          12.6461    1.6056    0.0000 O.2     1  UNL1       -0.2509
      8 O           2.0000    2.3444    0.0000 O.2     1  UNL1       -0.4706
      9 O          12.0121   -0.7606    0.0000 O.2     1  UNL1       -0.2453
     10 C           6.9084    0.6355    0.0000 C.3     1  UNL1        0.1044
     11 C           7.1840    1.5968    0.0000 C.3     1  UNL1        0.0033
     12 C           7.7374    0.0763    0.0000 C.3     1  UNL1        0.1019
     13 C           9.2172    1.9079    0.0000 C.3     1  UNL1        0.0361
     14 C           5.9017    0.3680    0.0000 C.3     1  UNL1        0.0100
     15 C           8.9584    0.9420    0.0000 C.3     1  UNL1        0.0844
     16 C           5.1723    1.1116    0.0000 C.3     1  UNL1        0.0153
     17 C          10.6489    1.7102    0.0000 C.3     1  UNL1       -0.0100
     18 C           6.4720    2.3571    0.0000 C.3     1  UNL1       -0.0460
     19 C           8.4806    2.8905    0.0000 C.2     1  UNL1        0.1490
     20 C          11.0072    0.7767    0.0000 C.3     1  UNL1        0.0072
     21 C          10.2301    0.1473    0.0000 C.3     1  UNL1        0.1207
     22 C           5.4594    2.1129    0.0000 C.3     1  UNL1       -0.0432
     23 C           5.6268   -0.6816    0.0000 C.3     1  UNL1        0.0511
     24 C           9.4761    2.8738    0.0000 C.3     1  UNL1       -0.0522
     25 C           4.1176    0.8573    0.0000 C.3     1  UNL1        0.1366
     26 C          11.1935    2.5489    0.0000 C.3     1  UNL1        0.0492
     27 C           4.4722    1.8256    0.0000 C.3     1  UNL1       -0.0555
     28 C          11.9732    1.0355    0.0000 C.3     1  UNL1       -0.0561
     29 C          11.7144    0.0695    0.0000 C.3     1  UNL1       -0.0561
     30 C           4.5782   -0.9603    0.0000 C.2     1  UNL1        0.3081
     31 C           3.4257    1.5793    0.0000 C.ar    1  UNL1        0.0309
     32 C          12.1921    2.4966    0.0000 C.2     1  UNL1        0.3071
     33 C          11.1734   -1.3053    0.0000 C.2     1  UNL1        0.3349
     34 C           3.6031    2.5634    0.0000 C.ar    1  UNL1       -0.0172
     35 C           2.4349    1.4439    0.0000 C.ar    1  UNL1        0.0984
     36 C          11.2258   -2.3039    0.0000 C.2     1  UNL1        0.0293
     37 C           2.7220    3.0363    0.0000 C.ar    1  UNL1        0.0921
     38 C          13.7354    3.2829    0.0000 C.3     1  UNL1        0.0817
     39 C          10.3871   -2.8486    0.0000 C.3     1  UNL1       -0.0333
     40 C          12.1168   -2.7579    0.0000 C.2     1  UNL1       -0.0774
     41 C          12.1691   -3.7565    0.0000 C.3     1  UNL1       -0.0461
     42 H           7.4183    2.4138    0.0000 H       1  UNL1        0.0339
     43 H           8.4421   -0.3990    0.0000 H       1  UNL1        0.0633
     44 H           6.5038   -0.2320    0.0000 H       1  UNL1        0.0341
     45 H           8.7384    0.1209    0.0000 H       1  UNL1        0.0441
     46 H          11.2655    1.6454    0.0000 H       1  UNL1        0.0322
     47 H           6.9905    2.6972    0.0000 H       1  UNL1        0.0269
     48 H           6.2257    2.9261    0.0000 H       1  UNL1        0.0269
     49 H          10.7965   -0.1048    0.0000 H       1  UNL1        0.0747
     50 H           5.4194    2.7316    0.0000 H       1  UNL1        0.0272
     51 H           4.8430    2.1793    0.0000 H       1  UNL1        0.0272
     52 H           5.6812   -1.2993    0.0000 H       1  UNL1        0.0381
     53 H           6.2446   -0.7338    0.0000 H       1  UNL1        0.0381
     54 H          10.0749    2.7134    0.0000 H       1  UNL1        0.0239
     55 H           9.6365    3.4727    0.0000 H       1  UNL1        0.0239
     56 H           8.8772    3.0343    0.0000 H       1  UNL1        0.0239
     57 H           3.5157    0.7085    0.0000 H       1  UNL1        0.0792
     58 H          11.3330    3.1530    0.0000 H       1  UNL1        0.0381
     59 H          10.6228    2.7912    0.0000 H       1  UNL1        0.0381
     60 H           4.9148    2.2597    0.0000 H       1  UNL1        0.0236
     61 H           4.0380    2.2683    0.0000 H       1  UNL1        0.0236
     62 H           4.0295    1.3915    0.0000 H       1  UNL1        0.0236
     63 H          12.1336    0.4366    0.0000 H       1  UNL1        0.0236
     64 H          12.5720    1.1959    0.0000 H       1  UNL1        0.0236
     65 H          11.8127    1.6344    0.0000 H       1  UNL1        0.0236
     66 H          11.2759   -0.3689    0.0000 H       1  UNL1        0.0236
     67 H          12.1528   -0.3689    0.0000 H       1  UNL1        0.0236
     68 H          12.1528    0.5080    0.0000 H       1  UNL1        0.0236
     69 H           4.1614    2.8331    0.0000 H       1  UNL1        0.0653
     70 H           2.1417    0.8976    0.0000 H       1  UNL1        0.1033
     71 H           2.6381    3.6506    0.0000 H       1  UNL1        0.1029
     72 H          13.7030    2.6638    0.0000 H       1  UNL1        0.0661
     73 H          14.3546    3.2504    0.0000 H       1  UNL1        0.0661
     74 H          13.7679    3.9020    0.0000 H       1  UNL1        0.0661
     75 H          10.0494   -2.3286    0.0000 H       1  UNL1        0.0280
     76 H           9.8671   -3.1862    0.0000 H       1  UNL1        0.0280
     77 H          10.7248   -3.3685    0.0000 H       1  UNL1        0.0280
     78 H          12.6368   -2.4202    0.0000 H       1  UNL1        0.0574
     79 H          11.5500   -3.7890    0.0000 H       1  UNL1        0.0272
     80 H          12.2016   -4.3757    0.0000 H       1  UNL1        0.0272
     81 H          12.7883   -3.7241    0.0000 H       1  UNL1        0.0272
@<TRIPOS>BOND
     1    10     1    1
     2     1    12    1
     3    21     2    1
     4     2    33    1
     5     3    25    1
     6     3    30    1
     7     4    19    2
     8     5    30    2
     9     6    32    1
    10     6    38    1
    11     7    32    2
    12     8    35   ar
    13     8    37   ar
    14     9    33    2
    15    10    11    1
    16    10    12    1
    17    10    14    1
    18    11    13    1
    19    11    18    1
    20    11    42    1
    21    12    15    1
    22    12    43    1
    23    13    17    1
    24    13    19    1
    25    13    24    1
    26    14    16    1
    27    14    23    1
    28    14    44    1
    29    15    19    1
    30    15    21    1
    31    15    45    1
    32    16    22    1
    33    16    25    1
    34    16    27    1
    35    17    20    1
    36    17    26    1
    37    17    46    1
    38    18    22    1
    39    18    47    1
    40    18    48    1
    41    20    21    1
    42    20    28    1
    43    20    29    1
    44    21    49    1
    45    22    50    1
    46    22    51    1
    47    23    30    1
    48    23    52    1
    49    23    53    1
    50    24    54    1
    51    24    55    1
    52    24    56    1
    53    25    31    1
    54    25    57    1
    55    26    32    1
    56    26    58    1
    57    26    59    1
    58    27    60    1
    59    27    61    1
    60    27    62    1
    61    28    63    1
    62    28    64    1
    63    28    65    1
    64    29    66    1
    65    29    67    1
    66    29    68    1
    67    31    34   ar
    68    31    35   ar
    69    33    36    1
    70    34    37   ar
    71    34    69    1
    72    35    70    1
    73    36    39    1
    74    36    40    2
    75    37    71    1
    76    38    72    1
    77    38    73    1
    78    38    74    1
    79    39    75    1
    80    39    76    1
    81    39    77    1
    82    40    41    1
    83    40    78    1
    84    41    79    1
    85    41    80    1
    86    41    81    1
