@<TRIPOS>MOLECULE
IMPHY017189
 46 49 0 0 0
SMALL
GASTEIGER

@<TRIPOS>ATOM
      1 O           2.8660    0.0302    0.0000 O.3     1  UNL1       -0.4908
      2 O           2.8660   -1.9698    0.0000 O.3     1  UNL1       -0.5031
      3 O           2.7416    3.1672    0.0000 O.3     1  UNL1       -0.4914
      4 O           4.5449    4.2270    0.0000 O.3     1  UNL1       -0.5033
      5 N           5.4800   -3.5390    0.0000 N.3     1  UNL1       -0.3007
      6 C           5.4641   -1.4698    0.0000 C.ar    1  UNL1       -0.0303
      7 C           4.5981   -1.9698    0.0000 C.ar    1  UNL1        0.0155
      8 C           6.3741   -1.9766    0.0000 C.3     1  UNL1       -0.0139
      9 C           4.5820   -3.0113    0.0000 C.3     1  UNL1        0.0276
     10 C           6.3821   -3.0182    0.0000 C.3     1  UNL1        0.0029
     11 C           5.4641   -0.4698    0.0000 C.ar    1  UNL1       -0.0100
     12 C           4.5981    0.0302    0.0000 C.ar    1  UNL1        0.0355
     13 C           3.7320   -1.4698    0.0000 C.ar    1  UNL1        0.1638
     14 C           3.7320   -0.4698    0.0000 C.ar    1  UNL1        0.1698
     15 C           4.5820    1.0717    0.0000 C.ar    1  UNL1       -0.0029
     16 C           6.3741    0.0371    0.0000 C.ar    1  UNL1       -0.0530
     17 C           5.4800    1.5995    0.0000 C.ar    1  UNL1       -0.0135
     18 C           5.4762   -4.5390    0.0000 C.3     1  UNL1       -0.0124
     19 C           6.3821    1.0787    0.0000 C.ar    1  UNL1       -0.0533
     20 C           3.6301    1.5924    0.0000 C.ar    1  UNL1       -0.0079
     21 C           5.4884    2.6845    0.0000 C.ar    1  UNL1       -0.0088
     22 C           3.6134    2.6772    0.0000 C.ar    1  UNL1        0.1619
     23 C           4.5488    3.2270    0.0000 C.ar    1  UNL1        0.1590
     24 C           2.0000   -0.4698    0.0000 C.3     1  UNL1        0.0790
     25 C           2.7300    4.1671    0.0000 C.3     1  UNL1        0.0790
     26 H           6.9858   -2.0780    0.0000 H       1  UNL1        0.0326
     27 H           6.5786   -1.3913    0.0000 H       1  UNL1        0.0326
     28 H           3.9729   -2.8958    0.0000 H       1  UNL1        0.0477
     29 H           4.3640   -3.5917    0.0000 H       1  UNL1        0.0477
     30 H           6.5957   -3.6003    0.0000 H       1  UNL1        0.0430
     31 H           6.9922   -2.9074    0.0000 H       1  UNL1        0.0430
     32 H           6.9074   -0.2791    0.0000 H       1  UNL1        0.0624
     33 H           4.8562   -4.5366    0.0000 H       1  UNL1        0.0391
     34 H           5.4738   -5.1590    0.0000 H       1  UNL1        0.0391
     35 H           6.0962   -4.5414    0.0000 H       1  UNL1        0.0391
     36 H           6.9203    1.3866    0.0000 H       1  UNL1        0.0624
     37 H           3.0992    1.2721    0.0000 H       1  UNL1        0.0662
     38 H           6.0265    2.9924    0.0000 H       1  UNL1        0.0661
     39 H           2.8660   -2.5898    0.0000 H       1  UNL1        0.2923
     40 H           1.6900    0.0672    0.0000 H       1  UNL1        0.0660
     41 H           1.4631   -0.7798    0.0000 H       1  UNL1        0.0660
     42 H           2.3100   -1.0067    0.0000 H       1  UNL1        0.0660
     43 H           5.0807    4.5390    0.0000 H       1  UNL1        0.2923
     44 H           3.3500    4.1743    0.0000 H       1  UNL1        0.0660
     45 H           2.7229    4.7871    0.0000 H       1  UNL1        0.0660
     46 H           2.1101    4.1600    0.0000 H       1  UNL1        0.0660
@<TRIPOS>BOND
     1     1    14    1
     2     1    24    1
     3     2    13    1
     4     2    39    1
     5     3    22    1
     6     3    25    1
     7     4    23    1
     8     4    43    1
     9     5     9    1
    10     5    10    1
    11     5    18    1
    12     6     7   ar
    13     6     8    1
    14     6    11   ar
    15     7     9    1
    16     7    13   ar
    17     8    10    1
    18     8    26    1
    19     8    27    1
    20     9    28    1
    21     9    29    1
    22    10    30    1
    23    10    31    1
    24    11    12   ar
    25    11    16   ar
    26    12    14   ar
    27    12    15   ar
    28    13    14   ar
    29    15    17   ar
    30    15    20   ar
    31    16    19   ar
    32    16    32    1
    33    17    19   ar
    34    17    21   ar
    35    18    33    1
    36    18    34    1
    37    18    35    1
    38    19    36    1
    39    20    22   ar
    40    20    37    1
    41    21    23   ar
    42    21    38    1
    43    22    23   ar
    44    24    40    1
    45    24    41    1
    46    24    42    1
    47    25    44    1
    48    25    45    1
    49    25    46    1
