@<TRIPOS>MOLECULE
IMPHY005891
 82 86 0 0 0
SMALL
GASTEIGER

@<TRIPOS>ATOM
      1 O           2.5357   -3.0844    0.0000 O.3     1  UNL1       -0.3912
      2 O          12.4039    2.2754    0.0000 O.3     1  UNL1       -0.3653
      3 C           7.0628   -1.5321    0.0000 C.3     1  UNL1       -0.0231
      4 C           7.9288   -1.0321    0.0000 C.3     1  UNL1       -0.0230
      5 C           6.1968   -1.0321    0.0000 C.3     1  UNL1       -0.0294
      6 C           5.2868   -1.5390    0.0000 C.3     1  UNL1       -0.0252
      7 C           7.9288   -0.0321    0.0000 C.3     1  UNL1       -0.0286
      8 C           5.2787   -2.5806    0.0000 C.3     1  UNL1       -0.0278
      9 C           7.0789   -2.5736    0.0000 C.3     1  UNL1       -0.0466
     10 C           6.1968   -0.0321    0.0000 C.3     1  UNL1       -0.0489
     11 C           8.8750   -1.3369    0.0000 C.3     1  UNL1       -0.0463
     12 C           6.1808   -3.1014    0.0000 C.3     1  UNL1       -0.0486
     13 C           7.0628    0.4679    0.0000 C.3     1  UNL1       -0.0489
     14 C           8.8750    0.2726    0.0000 C.3     1  UNL1       -0.0168
     15 C           4.3433   -3.1303    0.0000 C.3     1  UNL1       -0.0056
     16 C           4.3599   -0.9749    0.0000 C.3     1  UNL1       -0.0447
     17 C           9.4586   -0.5321    0.0000 C.3     1  UNL1       -0.0457
     18 C           7.7056   -2.2982    0.0000 C.3     1  UNL1       -0.0588
     19 C           8.2709   -1.9718    0.0000 C.3     1  UNL1       -0.0588
     20 C           5.2945   -0.5390    0.0000 C.3     1  UNL1       -0.0590
     21 C           3.4037   -2.5878    0.0000 C.3     1  UNL1        0.0606
     22 C           3.4120   -1.5028    0.0000 C.3     1  UNL1       -0.0258
     23 C           9.1857    1.2231    0.0000 C.2     1  UNL1       -0.0732
     24 C           3.8467   -3.9982    0.0000 C.3     1  UNL1       -0.0572
     25 C           4.8466   -3.9944    0.0000 C.3     1  UNL1       -0.0572
     26 C          10.1642    1.4293    0.0000 C.3     1  UNL1       -0.0293
     27 C           8.5179    1.9674    0.0000 C.2     1  UNL1       -0.0992
     28 C          10.4749    2.3799    0.0000 C.3     1  UNL1       -0.0202
     29 C          11.4534    2.5861    0.0000 C.3     1  UNL1        0.0881
     30 C          12.1977    3.2539    0.0000 C.3     1  UNL1        0.0904
     31 C          13.1762    3.4602    0.0000 C.3     1  UNL1       -0.0336
     32 C          11.5298    3.9982    0.0000 C.3     1  UNL1       -0.0336
     33 H           6.9329   -0.6071    0.0000 H       1  UNL1        0.0312
     34 H           8.0188    0.8131    0.0000 H       1  UNL1        0.0312
     35 H           5.2820   -3.4306    0.0000 H       1  UNL1        0.0312
     36 H           7.2969   -3.1540    0.0000 H       1  UNL1        0.0271
     37 H           7.6880   -2.4581    0.0000 H       1  UNL1        0.0271
     38 H           5.9847    0.5505    0.0000 H       1  UNL1        0.0268
     39 H           5.5862   -0.1398    0.0000 H       1  UNL1        0.0268
     40 H           8.6240   -1.9038    0.0000 H       1  UNL1        0.0271
     41 H           9.4124   -1.6461    0.0000 H       1  UNL1        0.0271
     42 H           5.7835   -3.5774    0.0000 H       1  UNL1        0.0268
     43 H           6.5818   -3.5743    0.0000 H       1  UNL1        0.0268
     44 H           7.4613    0.9428    0.0000 H       1  UNL1        0.0268
     45 H           6.6643    0.9428    0.0000 H       1  UNL1        0.0268
     46 H           9.4875    0.3688    0.0000 H       1  UNL1        0.0348
     47 H           4.7681   -0.5082    0.0000 H       1  UNL1        0.0271
     48 H           3.9700   -0.4928    0.0000 H       1  UNL1        0.0271
     49 H           9.9195   -0.9468    0.0000 H       1  UNL1        0.0271
     50 H           9.9195   -0.1174    0.0000 H       1  UNL1        0.0271
     51 H           7.2306   -2.6967    0.0000 H       1  UNL1        0.0235
     52 H           8.1041   -2.7731    0.0000 H       1  UNL1        0.0235
     53 H           8.1805   -1.8996    0.0000 H       1  UNL1        0.0235
     54 H           7.6884   -2.1839    0.0000 H       1  UNL1        0.0235
     55 H           8.4830   -2.5544    0.0000 H       1  UNL1        0.0235
     56 H           8.8535   -1.7597    0.0000 H       1  UNL1        0.0235
     57 H           5.9145   -0.5438    0.0000 H       1  UNL1        0.0235
     58 H           5.2993    0.0810    0.0000 H       1  UNL1        0.0235
     59 H           4.6745   -0.5342    0.0000 H       1  UNL1        0.0235
     60 H           3.4025   -3.2078    0.0000 H       1  UNL1        0.0599
     61 H           3.2075   -0.9175    0.0000 H       1  UNL1        0.0290
     62 H           2.8004   -1.6042    0.0000 H       1  UNL1        0.0290
     63 H           4.3109   -4.3064    0.0000 H       1  UNL1        0.0236
     64 H           5.1587   -4.5301    0.0000 H       1  UNL1        0.0236
     65 H           5.3824   -3.6823    0.0000 H       1  UNL1        0.0236
     66 H           3.3085   -3.6903    0.0000 H       1  UNL1        0.0236
     67 H           3.5387   -4.5364    0.0000 H       1  UNL1        0.0236
     68 H           4.3848   -4.3062    0.0000 H       1  UNL1        0.0236
     69 H          10.1848    0.8097    0.0000 H       1  UNL1        0.0311
     70 H          10.7780    1.3420    0.0000 H       1  UNL1        0.0311
     71 H           2.0000   -2.7724    0.0000 H       1  UNL1        0.2098
     72 H           8.7105    2.5568    0.0000 H       1  UNL1        0.0534
     73 H           7.9112    1.8396    0.0000 H       1  UNL1        0.0534
     74 H          10.4543    2.9995    0.0000 H       1  UNL1        0.0294
     75 H           9.8611    2.4672    0.0000 H       1  UNL1        0.0294
     76 H          11.4199    1.9670    0.0000 H       1  UNL1        0.0625
     77 H          13.3040    2.8535    0.0000 H       1  UNL1        0.0258
     78 H          13.7829    3.5880    0.0000 H       1  UNL1        0.0258
     79 H          13.0483    4.0668    0.0000 H       1  UNL1        0.0258
     80 H          11.9913    4.4123    0.0000 H       1  UNL1        0.0258
     81 H          11.1158    4.4597    0.0000 H       1  UNL1        0.0258
     82 H          11.0684    3.5842    0.0000 H       1  UNL1        0.0258
@<TRIPOS>BOND
     1    21     1    1
     2     1    71    1
     3     2    29    1
     4     2    30    1
     5     3     4    1
     6     3     5    1
     7     3     9    1
     8     3    18    1
     9     4     7    1
    10     4    11    1
    11     4    19    1
    12     5     6    1
    13     5    10    1
    14     5    33    1
    15     6     8    1
    16     6    16    1
    17     6    20    1
    18     7    13    1
    19     7    14    1
    20     7    34    1
    21     8    12    1
    22     8    15    1
    23     8    35    1
    24     9    12    1
    25     9    36    1
    26     9    37    1
    27    10    13    1
    28    10    38    1
    29    10    39    1
    30    11    17    1
    31    11    40    1
    32    11    41    1
    33    12    42    1
    34    12    43    1
    35    13    44    1
    36    13    45    1
    37    14    17    1
    38    14    23    1
    39    14    46    1
    40    15    21    1
    41    15    24    1
    42    15    25    1
    43    16    22    1
    44    16    47    1
    45    16    48    1
    46    17    49    1
    47    17    50    1
    48    18    51    1
    49    18    52    1
    50    18    53    1
    51    19    54    1
    52    19    55    1
    53    19    56    1
    54    20    57    1
    55    20    58    1
    56    20    59    1
    57    21    22    1
    58    21    60    1
    59    22    61    1
    60    22    62    1
    61    23    26    1
    62    23    27    2
    63    24    66    1
    64    24    67    1
    65    24    68    1
    66    25    63    1
    67    25    64    1
    68    25    65    1
    69    26    28    1
    70    26    69    1
    71    26    70    1
    72    27    72    1
    73    27    73    1
    74    29    28    1
    75    28    74    1
    76    28    75    1
    77    29    30    1
    78    29    76    1
    79    30    31    1
    80    30    32    1
    81    31    77    1
    82    31    78    1
    83    31    79    1
    84    32    80    1
    85    32    81    1
    86    32    82    1
