@<TRIPOS>MOLECULE
IMPHY002095
 45 47 0 0 0
SMALL
GASTEIGER

@<TRIPOS>ATOM
      1 O           6.8671    0.1550    0.0000 O.3     1  UNL1       -0.3093
      2 O           5.1350    0.1550    0.0000 O.3     1  UNL1       -0.3404
      3 O           6.0010    1.6550    0.0000 O.2     1  UNL1       -0.4707
      4 O           6.8671   -1.8450    0.0000 O.3     1  UNL1       -0.3841
      5 O           5.1350   -2.8450    0.0000 O.3     1  UNL1       -0.3864
      6 O           3.4030   -1.8450    0.0000 O.3     1  UNL1       -0.3865
      7 O           9.9685    0.1935    0.0000 O.3     1  UNL1       -0.3907
      8 O           2.5369   -0.3450    0.0000 O.3     1  UNL1       -0.3924
      9 C           7.7331    1.6550    0.0000 C.3     1  UNL1        0.0514
     10 C           7.7331    2.6550    0.0000 C.3     1  UNL1       -0.0041
     11 C           6.8671    1.1550    0.0000 C.3     1  UNL1        0.2105
     12 C           8.6793    2.9597    0.0000 C.3     1  UNL1       -0.0273
     13 C           8.6793    1.3503    0.0000 C.2     1  UNL1       -0.0388
     14 C           6.0010   -0.3450    0.0000 C.3     1  UNL1        0.1918
     15 C           6.0010   -1.3450    0.0000 C.3     1  UNL1        0.1342
     16 C           5.1350   -1.8450    0.0000 C.3     1  UNL1        0.1141
     17 C           4.2690   -1.3450    0.0000 C.3     1  UNL1        0.1119
     18 C           4.2690   -0.3450    0.0000 C.3     1  UNL1        0.1130
     19 C           9.2629    2.1550    0.0000 C.2     1  UNL1       -0.0816
     20 C           6.8671    3.1550    0.0000 C.2     1  UNL1       -0.0454
     21 C           8.9900    0.3997    0.0000 C.3     1  UNL1        0.0658
     22 C           6.0010    2.6550    0.0000 C.2     1  UNL1        0.0843
     23 C           3.4030    0.1550    0.0000 C.3     1  UNL1        0.0730
     24 H           7.8230    0.8098    0.0000 H       1  UNL1        0.0413
     25 H           7.8230    3.5002    0.0000 H       1  UNL1        0.0355
     26 H           7.4040    0.8450    0.0000 H       1  UNL1        0.1062
     27 H           9.2167    3.2690    0.0000 H       1  UNL1        0.0313
     28 H           8.4283    3.5266    0.0000 H       1  UNL1        0.0313
     29 H           6.0010    0.2750    0.0000 H       1  UNL1        0.0939
     30 H           6.0010   -1.9650    0.0000 H       1  UNL1        0.0671
     31 H           4.5981   -2.1550    0.0000 H       1  UNL1        0.0648
     32 H           3.7320   -1.0350    0.0000 H       1  UNL1        0.0647
     33 H           4.2690    0.2750    0.0000 H       1  UNL1        0.0647
     34 H           9.8829    2.1550    0.0000 H       1  UNL1        0.0573
     35 H           6.8671    3.7750    0.0000 H       1  UNL1        0.0605
     36 H           8.3762    0.3124    0.0000 H       1  UNL1        0.0604
     37 H           8.9694   -0.2199    0.0000 H       1  UNL1        0.0604
     38 H           5.4641    2.9650    0.0000 H       1  UNL1        0.1021
     39 H           3.8015    0.6299    0.0000 H       1  UNL1        0.0584
     40 H           3.0044    0.6299    0.0000 H       1  UNL1        0.0584
     41 H           6.8671   -2.4650    0.0000 H       1  UNL1        0.2101
     42 H           4.5981   -3.1550    0.0000 H       1  UNL1        0.2100
     43 H           3.4030   -2.4650    0.0000 H       1  UNL1        0.2100
     44 H          10.1611   -0.3958    0.0000 H       1  UNL1        0.2098
     45 H           2.0000   -0.0350    0.0000 H       1  UNL1        0.2095
@<TRIPOS>BOND
     1    11     1    1
     2    14     1    1
     3     2    14    1
     4     2    18    1
     5     3    11    1
     6     3    22    1
     7    15     4    1
     8     4    41    1
     9    16     5    1
    10     5    42    1
    11    17     6    1
    12     6    43    1
    13     7    21    1
    14     7    44    1
    15     8    23    1
    16     8    45    1
    17     9    10    1
    18     9    11    1
    19     9    13    1
    20     9    24    1
    21    10    12    1
    22    10    20    1
    23    10    25    1
    24    11    26    1
    25    12    19    1
    26    12    27    1
    27    12    28    1
    28    13    19    2
    29    13    21    1
    30    14    15    1
    31    14    29    1
    32    15    16    1
    33    15    30    1
    34    16    17    1
    35    16    31    1
    36    17    18    1
    37    17    32    1
    38    18    23    1
    39    18    33    1
    40    19    34    1
    41    20    22    2
    42    20    35    1
    43    21    36    1
    44    21    37    1
    45    22    38    1
    46    23    39    1
    47    23    40    1
