@<TRIPOS>MOLECULE
IMPHY007166
 39 41 0 0 0
SMALL
GASTEIGER

@<TRIPOS>ATOM
      1 O           6.4783   -1.0720    0.0000 O.3     1  UNL1       -0.4608
      2 O           8.0619   -0.2673    0.0000 O.2     1  UNL1       -0.2505
      3 C           3.8000   -0.7673    0.0000 C.3     1  UNL1       -0.0222
      4 C           3.8000    0.2327    0.0000 C.3     1  UNL1       -0.0143
      5 C           5.5321    0.2327    0.0000 C.3     1  UNL1        0.0094
      6 C           4.6660   -1.2673    0.0000 C.3     1  UNL1       -0.0094
      7 C           5.5321   -0.7673    0.0000 C.3     1  UNL1        0.1072
      8 C           4.6660    0.7327    0.0000 C.3     1  UNL1       -0.0391
      9 C           2.9061   -1.3020    0.0000 C.3     1  UNL1       -0.0467
     10 C           6.4783    0.5374    0.0000 C.3     1  UNL1        0.0598
     11 C           2.9061    0.7674    0.0000 C.2     1  UNL1       -0.0730
     12 C           3.8000   -1.7673    0.0000 C.3     1  UNL1       -0.0589
     13 C           2.0000   -0.7881    0.0000 C.3     1  UNL1       -0.0489
     14 C           2.0000    0.2535    0.0000 C.3     1  UNL1       -0.0317
     15 C           7.0619   -0.2673    0.0000 C.2     1  UNL1        0.3106
     16 C           6.7889    1.4880    0.0000 C.3     1  UNL1       -0.0519
     17 C           2.9176    1.7673    0.0000 C.2     1  UNL1       -0.0992
     18 H           3.8066    1.0827    0.0000 H       1  UNL1        0.0351
     19 H           5.6220    1.0779    0.0000 H       1  UNL1        0.0344
     20 H           4.2675   -1.7422    0.0000 H       1  UNL1        0.0306
     21 H           5.0646   -1.7422    0.0000 H       1  UNL1        0.0306
     22 H           5.6220   -1.6125    0.0000 H       1  UNL1        0.0737
     23 H           5.0646    1.2076    0.0000 H       1  UNL1        0.0275
     24 H           4.2675    1.2076    0.0000 H       1  UNL1        0.0275
     25 H           2.5124   -1.7810    0.0000 H       1  UNL1        0.0271
     26 H           3.3107   -1.7718    0.0000 H       1  UNL1        0.0271
     27 H           7.0908    0.6336    0.0000 H       1  UNL1        0.0415
     28 H           3.1800   -1.7673    0.0000 H       1  UNL1        0.0235
     29 H           3.8000   -2.3873    0.0000 H       1  UNL1        0.0235
     30 H           4.4200   -1.7673    0.0000 H       1  UNL1        0.0235
     31 H           1.3891   -0.6820    0.0000 H       1  UNL1        0.0268
     32 H           1.7909   -1.3718    0.0000 H       1  UNL1        0.0268
     33 H           1.7909    0.8372    0.0000 H       1  UNL1        0.0310
     34 H           1.3891    0.1474    0.0000 H       1  UNL1        0.0310
     35 H           7.3783    1.2953    0.0000 H       1  UNL1        0.0238
     36 H           6.9816    2.0773    0.0000 H       1  UNL1        0.0238
     37 H           6.1996    1.6806    0.0000 H       1  UNL1        0.0238
     38 H           3.4581    2.0711    0.0000 H       1  UNL1        0.0534
     39 H           2.3843    2.0835    0.0000 H       1  UNL1        0.0534
@<TRIPOS>BOND
     1     1     7    1
     2     1    15    1
     3     2    15    2
     4     3     4    1
     5     3     6    1
     6     3     9    1
     7     3    12    1
     8     4     8    1
     9     4    11    1
    10     4    18    1
    11     5     7    1
    12     5     8    1
    13     5    10    1
    14     5    19    1
    15     6     7    1
    16     6    20    1
    17     6    21    1
    18     7    22    1
    19     8    23    1
    20     8    24    1
    21     9    13    1
    22     9    25    1
    23     9    26    1
    24    10    15    1
    25    10    16    1
    26    10    27    1
    27    11    14    1
    28    11    17    2
    29    12    28    1
    30    12    29    1
    31    12    30    1
    32    13    14    1
    33    13    31    1
    34    13    32    1
    35    14    33    1
    36    14    34    1
    37    16    35    1
    38    16    36    1
    39    16    37    1
    40    17    38    1
    41    17    39    1
