@<TRIPOS>MOLECULE
IMPHY013979
 22 22 0 0 0
SMALL
GASTEIGER

@<TRIPOS>ATOM
      1 O           2.8660    0.9050    0.0000 O.3     1  UNL1       -0.4943
      2 O           4.5981   -2.0950    0.0000 O.3     1  UNL1       -0.5066
      3 O           3.7320    2.4050    0.0000 O.2     1  UNL1       -0.2922
      4 C           4.5981    0.9050    0.0000 C.ar    1  UNL1        0.0589
      5 C           3.7320    0.4050    0.0000 C.ar    1  UNL1        0.1340
      6 C           5.4641    0.4050    0.0000 C.ar    1  UNL1       -0.0443
      7 C           3.7320   -0.5950    0.0000 C.ar    1  UNL1        0.0222
      8 C           4.5981   -1.0950    0.0000 C.ar    1  UNL1        0.1204
      9 C           5.4641   -0.5950    0.0000 C.ar    1  UNL1       -0.0193
     10 C           4.5981    1.9050    0.0000 C.2     1  UNL1        0.1636
     11 C           5.4641    2.4050    0.0000 C.3     1  UNL1       -0.0013
     12 C           2.0000    0.4050    0.0000 C.3     1  UNL1        0.0788
     13 H           6.0010    0.7150    0.0000 H       1  UNL1        0.0627
     14 H           3.1951   -0.9050    0.0000 H       1  UNL1        0.0691
     15 H           6.0010   -0.9050    0.0000 H       1  UNL1        0.0654
     16 H           5.7741    1.8681    0.0000 H       1  UNL1        0.0309
     17 H           6.0010    2.7150    0.0000 H       1  UNL1        0.0309
     18 H           5.1541    2.9419    0.0000 H       1  UNL1        0.0309
     19 H           1.6900    0.9419    0.0000 H       1  UNL1        0.0660
     20 H           1.4631    0.0950    0.0000 H       1  UNL1        0.0660
     21 H           2.3100   -0.1319    0.0000 H       1  UNL1        0.0660
     22 H           5.1350   -2.4050    0.0000 H       1  UNL1        0.2921
@<TRIPOS>BOND
     1     1     5    1
     2     1    12    1
     3     2     8    1
     4     2    22    1
     5     3    10    2
     6     4     5   ar
     7     4     6   ar
     8     4    10    1
     9     5     7   ar
    10     6     9   ar
    11     6    13    1
    12     7     8   ar
    13     7    14    1
    14     8     9   ar
    15     9    15    1
    16    10    11    1
    17    11    16    1
    18    11    17    1
    19    11    18    1
    20    12    19    1
    21    12    20    1
    22    12    21    1
