@<TRIPOS>MOLECULE
IMPHY010032
 26 27 0 0 0
SMALL
GASTEIGER

@<TRIPOS>ATOM
      1 O           5.4804   -1.7623    0.0000 O.3     1  UNL1       -0.4907
      2 O           7.2622   -0.7519    0.0000 O.3     1  UNL1       -0.5033
      3 O           3.7320    2.2723    0.0000 O.2     1  UNL1       -0.2870
      4 O           3.7320   -1.7277    0.0000 O.2     1  UNL1       -0.2871
      5 C           4.5981   -0.2277    0.0000 C.ar    1  UNL1        0.0777
      6 C           4.5981    0.7723    0.0000 C.ar    1  UNL1        0.0365
      7 C           5.4920   -0.7624    0.0000 C.ar    1  UNL1        0.1727
      8 C           3.7320    1.2723    0.0000 C.2     1  UNL1        0.1899
      9 C           2.8660    0.7723    0.0000 C.2     1  UNL1        0.0004
     10 C           3.7320   -0.7277    0.0000 C.2     1  UNL1        0.1907
     11 C           5.4920    1.3070    0.0000 C.ar    1  UNL1       -0.0466
     12 C           2.8660   -0.2277    0.0000 C.2     1  UNL1       -0.0077
     13 C           6.3981   -0.2485    0.0000 C.ar    1  UNL1        0.1592
     14 C           6.3981    0.7931    0.0000 C.ar    1  UNL1       -0.0158
     15 C           2.0000    1.2723    0.0000 C.3     1  UNL1       -0.0359
     16 C           6.3406   -2.2723    0.0000 C.3     1  UNL1        0.0790
     17 H           5.4848    1.9269    0.0000 H       1  UNL1        0.0626
     18 H           2.3291   -0.5377    0.0000 H       1  UNL1        0.0660
     19 H           6.9338    1.1052    0.0000 H       1  UNL1        0.0655
     20 H           2.3100    1.8092    0.0000 H       1  UNL1        0.0279
     21 H           1.4631    1.5823    0.0000 H       1  UNL1        0.0279
     22 H           1.6900    0.7354    0.0000 H       1  UNL1        0.0279
     23 H           6.0244   -2.8056    0.0000 H       1  UNL1        0.0660
     24 H           6.8740   -2.5885    0.0000 H       1  UNL1        0.0660
     25 H           6.6568   -1.7390    0.0000 H       1  UNL1        0.0660
     26 H           7.8003   -0.4439    0.0000 H       1  UNL1        0.2923
@<TRIPOS>BOND
     1     1     7    1
     2     1    16    1
     3     2    13    1
     4     2    26    1
     5     3     8    2
     6     4    10    2
     7     5     6   ar
     8     5     7   ar
     9     5    10    1
    10     6     8    1
    11     6    11   ar
    12     7    13   ar
    13     8     9    1
    14     9    12    2
    15     9    15    1
    16    10    12    1
    17    11    14   ar
    18    11    17    1
    19    12    18    1
    20    13    14   ar
    21    14    19    1
    22    15    20    1
    23    15    21    1
    24    15    22    1
    25    16    23    1
    26    16    24    1
    27    16    25    1
