@<TRIPOS>MOLECULE
IMPHY009969
 16 15 0 0 0
SMALL
GASTEIGER

@<TRIPOS>ATOM
      1 S           3.7320   -0.2500    0.0000 S.3     1  UNL1       -0.0934
      2 S           4.5981    0.2500    0.0000 S.3     1  UNL1       -0.0934
      3 C           2.8660    0.2500    0.0000 C.3     1  UNL1        0.0011
      4 C           5.4641   -0.2500    0.0000 C.3     1  UNL1        0.0011
      5 C           2.0000   -0.2500    0.0000 C.3     1  UNL1       -0.0554
      6 C           6.3301    0.2500    0.0000 C.3     1  UNL1       -0.0554
      7 H           3.2646    0.7249    0.0000 H       1  UNL1        0.0382
      8 H           2.4675    0.7249    0.0000 H       1  UNL1        0.0382
      9 H           5.0656   -0.7249    0.0000 H       1  UNL1        0.0382
     10 H           5.8626   -0.7249    0.0000 H       1  UNL1        0.0382
     11 H           1.6900    0.2869    0.0000 H       1  UNL1        0.0238
     12 H           1.4631   -0.5600    0.0000 H       1  UNL1        0.0238
     13 H           2.3100   -0.7869    0.0000 H       1  UNL1        0.0238
     14 H           6.6401   -0.2869    0.0000 H       1  UNL1        0.0238
     15 H           6.8671    0.5600    0.0000 H       1  UNL1        0.0238
     16 H           6.0201    0.7869    0.0000 H       1  UNL1        0.0238
@<TRIPOS>BOND
     1     1     2    1
     2     1     3    1
     3     2     4    1
     4     3     5    1
     5     3     7    1
     6     3     8    1
     7     4     6    1
     8     4     9    1
     9     4    10    1
    10     5    11    1
    11     5    12    1
    12     5    13    1
    13     6    14    1
    14     6    15    1
    15     6    16    1
