@<TRIPOS>MOLECULE
IMPHY000728
 87 90 0 0 0
SMALL
GASTEIGER

@<TRIPOS>ATOM
      1 O          12.9292    0.0909    0.0000 O.2     1  UNL1       -0.4607
      2 O          10.3653    3.5318    0.0000 O.3     1  UNL1       -0.3914
      3 O          13.7953    1.5910    0.0000 O.3     1  UNL1       -0.4245
      4 O          12.2112    4.2576    0.0000 O.3     1  UNL1       -0.3946
      5 O          10.3312   -1.4090    0.0000 O.3     1  UNL1       -0.3443
      6 O           8.5991   -1.4090    0.0000 O.3     1  UNL1       -0.3405
      7 O           6.8671   -0.4091    0.0000 O.3     1  UNL1       -0.3460
      8 O          10.3312   -3.4090    0.0000 O.3     1  UNL1       -0.3841
      9 O           8.5991   -4.4090    0.0000 O.3     1  UNL1       -0.3864
     10 O           6.8671   -3.4090    0.0000 O.3     1  UNL1       -0.3865
     11 O           5.1350   -0.4091    0.0000 O.3     1  UNL1       -0.3405
     12 O          14.6613    0.0909    0.0000 O.2     1  UNL1       -0.2507
     13 O           6.8671    1.5910    0.0000 O.3     1  UNL1       -0.3841
     14 O           5.1350    2.5910    0.0000 O.3     1  UNL1       -0.3864
     15 O           3.4030    1.5910    0.0000 O.3     1  UNL1       -0.3865
     16 O           2.5369    0.0909    0.0000 O.3     1  UNL1       -0.3924
     17 C          12.0632    1.5910    0.0000 C.3     1  UNL1        0.0473
     18 C          11.1972    1.0910    0.0000 C.3     1  UNL1       -0.0022
     19 C          11.8540    2.5628    0.0000 C.3     1  UNL1        0.0184
     20 C          10.8653    2.6658    0.0000 C.3     1  UNL1        0.0612
     21 C          10.4602    1.7580    0.0000 C.3     1  UNL1       -0.0193
     22 C          12.9292    1.0910    0.0000 C.3     1  UNL1        0.2490
     23 C          11.1972    0.0909    0.0000 C.2     1  UNL1       -0.0061
     24 C          12.5219    3.3071    0.0000 C.3     1  UNL1        0.0499
     25 C          12.0632   -0.4091    0.0000 C.2     1  UNL1        0.0907
     26 C          10.3312   -0.4091    0.0000 C.3     1  UNL1        0.0752
     27 C           9.4651   -1.9090    0.0000 C.3     1  UNL1        0.1883
     28 C           9.4651   -2.9090    0.0000 C.3     1  UNL1        0.1341
     29 C           8.5991   -3.4090    0.0000 C.3     1  UNL1        0.1141
     30 C           7.7331   -1.9090    0.0000 C.3     1  UNL1        0.1134
     31 C          14.6613    1.0910    0.0000 C.2     1  UNL1        0.3102
     32 C           7.7331   -2.9090    0.0000 C.3     1  UNL1        0.1119
     33 C           6.8671   -1.4090    0.0000 C.3     1  UNL1        0.0796
     34 C          15.5273    1.5910    0.0000 C.3     1  UNL1        0.0474
     35 C           6.0010    0.0909    0.0000 C.3     1  UNL1        0.1880
     36 C           6.0010    1.0910    0.0000 C.3     1  UNL1        0.1341
     37 C           5.1350    1.5910    0.0000 C.3     1  UNL1        0.1141
     38 C           4.2690    1.0910    0.0000 C.3     1  UNL1        0.1119
     39 C           4.2690    0.0909    0.0000 C.3     1  UNL1        0.1130
     40 C          16.3933    1.0910    0.0000 C.3     1  UNL1       -0.0367
     41 C           3.4030   -0.4091    0.0000 C.3     1  UNL1        0.0730
     42 C          17.2594    1.5910    0.0000 C.3     1  UNL1       -0.0622
     43 C          16.3933    0.0909    0.0000 C.3     1  UNL1       -0.0622
     44 H          12.7502    2.0915    0.0000 H       1  UNL1        0.0383
     45 H          10.4202    0.7462    0.0000 H       1  UNL1        0.0353
     46 H          12.4532    2.4036    0.0000 H       1  UNL1        0.0353
     47 H          11.2027    3.1859    0.0000 H       1  UNL1        0.0597
     48 H           9.9237    2.0688    0.0000 H       1  UNL1        0.0296
     49 H          10.0947    1.2572    0.0000 H       1  UNL1        0.0296
     50 H          12.9292    1.7110    0.0000 H       1  UNL1        0.1209
     51 H          12.9044    2.8192    0.0000 H       1  UNL1        0.0561
     52 H          13.0688    3.5991    0.0000 H       1  UNL1        0.0561
     53 H          12.0632   -1.0290    0.0000 H       1  UNL1        0.1025
     54 H          10.1191    0.1736    0.0000 H       1  UNL1        0.0609
     55 H           9.7206   -0.5167    0.0000 H       1  UNL1        0.0609
     56 H           9.7453    3.5318    0.0000 H       1  UNL1        0.2098
     57 H          12.6253    4.7190    0.0000 H       1  UNL1        0.2094
     58 H          10.0021   -2.2191    0.0000 H       1  UNL1        0.0938
     59 H           9.4651   -3.5290    0.0000 H       1  UNL1        0.0671
     60 H           7.7331   -1.2890    0.0000 H       1  UNL1        0.0647
     61 H           8.0622   -3.7190    0.0000 H       1  UNL1        0.0648
     62 H           7.1962   -2.5990    0.0000 H       1  UNL1        0.0647
     63 H           6.2565   -1.3014    0.0000 H       1  UNL1        0.0587
     64 H           6.6550   -1.9917    0.0000 H       1  UNL1        0.0587
     65 H          15.9258    2.0659    0.0000 H       1  UNL1        0.0380
     66 H          15.1288    2.0659    0.0000 H       1  UNL1        0.0380
     67 H           6.5380    0.4009    0.0000 H       1  UNL1        0.0937
     68 H           6.0010    1.7110    0.0000 H       1  UNL1        0.0671
     69 H           4.5981    1.9010    0.0000 H       1  UNL1        0.0648
     70 H           4.8311    1.7110    0.0000 H       1  UNL1        0.0647
     71 H           4.2690   -0.5291    0.0000 H       1  UNL1        0.0647
     72 H          16.9303    0.7809    0.0000 H       1  UNL1        0.0301
     73 H          10.8681   -3.0990    0.0000 H       1  UNL1        0.2101
     74 H           8.0622   -4.7190    0.0000 H       1  UNL1        0.2100
     75 H           6.3301   -3.0990    0.0000 H       1  UNL1        0.2100
     76 H           3.0044   -0.8840    0.0000 H       1  UNL1        0.0584
     77 H           3.8015   -0.8840    0.0000 H       1  UNL1        0.0584
     78 H          15.7733    0.0909    0.0000 H       1  UNL1        0.0232
     79 H          16.3933   -0.5291    0.0000 H       1  UNL1        0.0232
     80 H          17.0133    0.0909    0.0000 H       1  UNL1        0.0232
     81 H          17.5694    1.0540    0.0000 H       1  UNL1        0.0232
     82 H          17.7963    1.9010    0.0000 H       1  UNL1        0.0232
     83 H          16.9494    2.1279    0.0000 H       1  UNL1        0.0232
     84 H           6.8671    2.2110    0.0000 H       1  UNL1        0.2101
     85 H           4.5981    2.9010    0.0000 H       1  UNL1        0.2100
     86 H           3.4030    2.2110    0.0000 H       1  UNL1        0.2100
     87 H           2.0000   -0.2191    0.0000 H       1  UNL1        0.2095
@<TRIPOS>BOND
     1     1    22    1
     2     1    25    1
     3    20     2    1
     4     2    56    1
     5    22     3    1
     6     3    31    1
     7     4    24    1
     8     4    57    1
     9     5    26    1
    10    27     5    1
    11     6    27    1
    12     6    30    1
    13     7    33    1
    14    35     7    1
    15    28     8    1
    16     8    73    1
    17    29     9    1
    18     9    74    1
    19    32    10    1
    20    10    75    1
    21    11    35    1
    22    11    39    1
    23    12    31    2
    24    36    13    1
    25    13    84    1
    26    37    14    1
    27    14    85    1
    28    38    15    1
    29    15    86    1
    30    16    41    1
    31    16    87    1
    32    17    18    1
    33    17    19    1
    34    17    22    1
    35    17    44    1
    36    18    21    1
    37    18    23    1
    38    18    45    1
    39    19    20    1
    40    19    24    1
    41    19    46    1
    42    20    21    1
    43    20    47    1
    44    21    48    1
    45    21    49    1
    46    22    50    1
    47    23    25    2
    48    23    26    1
    49    24    51    1
    50    24    52    1
    51    25    53    1
    52    26    54    1
    53    26    55    1
    54    27    28    1
    55    27    58    1
    56    28    29    1
    57    28    59    1
    58    29    32    1
    59    29    61    1
    60    30    32    1
    61    30    33    1
    62    30    60    1
    63    31    34    1
    64    32    62    1
    65    33    63    1
    66    33    64    1
    67    34    40    1
    68    34    65    1
    69    34    66    1
    70    35    36    1
    71    35    67    1
    72    36    37    1
    73    36    68    1
    74    37    38    1
    75    37    69    1
    76    38    39    1
    77    38    70    1
    78    39    41    1
    79    39    71    1
    80    40    42    1
    81    40    43    1
    82    40    72    1
    83    41    76    1
    84    41    77    1
    85    42    81    1
    86    42    82    1
    87    42    83    1
    88    43    78    1
    89    43    79    1
    90    43    80    1
