@<TRIPOS>MOLECULE
IMPHY008555
 78 82 0 0 0
SMALL
GASTEIGER

@<TRIPOS>ATOM
      1 O           6.0010   -0.9050    0.0000 O.3     1  UNL1       -0.3366
      2 O           6.8671    1.5950    0.0000 O.3     1  UNL1       -0.3313
      3 O           4.2690   -0.9050    0.0000 O.3     1  UNL1       -0.3431
      4 O           4.2690    0.0950    0.0000 O.3     1  UNL1       -0.3863
      5 O           7.7331    0.0950    0.0000 O.3     1  UNL1       -0.4534
      6 O           4.2690    2.0950    0.0000 O.3     1  UNL1       -0.3865
      7 O           6.0010   -2.9050    0.0000 O.3     1  UNL1       -0.3841
      8 O           4.2690   -3.9050    0.0000 O.3     1  UNL1       -0.3864
      9 O           2.5369   -2.9050    0.0000 O.3     1  UNL1       -0.3866
     10 O           5.1350    3.5950    0.0000 O.3     1  UNL1       -0.3924
     11 O           7.7331    2.0950    0.0000 O.3     1  UNL1       -0.4912
     12 O           9.4651   -0.9050    0.0000 O.3     1  UNL1       -0.5027
     13 O          11.2251    2.1297    0.0000 O.2     1  UNL1       -0.4544
     14 O          11.2135   -0.9396    0.0000 O.2     1  UNL1       -0.2869
     15 O          15.5875    3.6292    0.0000 O.3     1  UNL1       -0.4951
     16 C           6.0010    0.0950    0.0000 C.3     1  UNL1        0.1519
     17 C           5.1350    0.5950    0.0000 C.3     1  UNL1        0.1155
     18 C           5.1350    1.5950    0.0000 C.3     1  UNL1        0.1120
     19 C           5.1350   -1.4050    0.0000 C.3     1  UNL1        0.1885
     20 C           6.8671    0.5950    0.0000 C.3     1  UNL1        0.2315
     21 C           5.1350   -2.4050    0.0000 C.3     1  UNL1        0.1341
     22 C           6.0010    2.0950    0.0000 C.3     1  UNL1        0.1140
     23 C           4.2690   -2.9050    0.0000 C.3     1  UNL1        0.1140
     24 C           3.4030   -2.4050    0.0000 C.3     1  UNL1        0.1095
     25 C           3.4030   -1.4050    0.0000 C.3     1  UNL1        0.0873
     26 C           6.0010    3.0950    0.0000 C.3     1  UNL1        0.0731
     27 C           2.5369   -0.9050    0.0000 C.3     1  UNL1       -0.0361
     28 C           8.5991    0.5950    0.0000 C.ar    1  UNL1        0.2074
     29 C           9.4651    0.0950    0.0000 C.ar    1  UNL1        0.1769
     30 C           8.5991    1.5950    0.0000 C.ar    1  UNL1        0.1688
     31 C          10.3312    0.5950    0.0000 C.ar    1  UNL1        0.1091
     32 C           9.4651    2.0950    0.0000 C.ar    1  UNL1        0.0270
     33 C          10.3312    1.5950    0.0000 C.ar    1  UNL1        0.1465
     34 C          11.2251    0.0603    0.0000 C.ar    1  UNL1        0.1967
     35 C          12.1312    0.5742    0.0000 C.ar    1  UNL1        0.0288
     36 C          12.1312    1.6158    0.0000 C.ar    1  UNL1        0.1392
     37 C           7.7331    3.0950    0.0000 C.3     1  UNL1        0.0790
     38 C          12.9953    2.1192    0.0000 C.ar    1  UNL1        0.0176
     39 C          13.8632    1.6225    0.0000 C.ar    1  UNL1       -0.0476
     40 C          12.9914    3.1191    0.0000 C.ar    1  UNL1       -0.0476
     41 C          14.7273    2.1258    0.0000 C.ar    1  UNL1       -0.0193
     42 C          13.8555    3.6225    0.0000 C.ar    1  UNL1       -0.0193
     43 C          14.7234    3.1258    0.0000 C.ar    1  UNL1        0.1201
     44 C          16.4555    3.1325    0.0000 C.3     1  UNL1        0.0788
     45 H           6.5380   -0.2150    0.0000 H       1  UNL1        0.0687
     46 H           4.5981    0.9050    0.0000 H       1  UNL1        0.0648
     47 H           5.1350    2.2150    0.0000 H       1  UNL1        0.0647
     48 H           5.1350   -0.7850    0.0000 H       1  UNL1        0.0938
     49 H           7.4040    0.9050    0.0000 H       1  UNL1        0.1084
     50 H           5.1350   -3.0250    0.0000 H       1  UNL1        0.0671
     51 H           6.5380    2.4050    0.0000 H       1  UNL1        0.0647
     52 H           3.7320   -3.2150    0.0000 H       1  UNL1        0.0648
     53 H           2.8660   -2.0950    0.0000 H       1  UNL1        0.0646
     54 H           3.4030   -0.7850    0.0000 H       1  UNL1        0.0621
     55 H           6.6116    2.9873    0.0000 H       1  UNL1        0.0584
     56 H           6.2131    3.6776    0.0000 H       1  UNL1        0.0584
     57 H           2.8469   -0.3681    0.0000 H       1  UNL1        0.0255
     58 H           2.0000   -0.5950    0.0000 H       1  UNL1        0.0255
     59 H           2.2269   -1.4419    0.0000 H       1  UNL1        0.0255
     60 H           3.7320    0.4050    0.0000 H       1  UNL1        0.2100
     61 H           4.2690    2.7150    0.0000 H       1  UNL1        0.2100
     62 H           6.0010   -3.5250    0.0000 H       1  UNL1        0.2101
     63 H           3.7320   -4.2150    0.0000 H       1  UNL1        0.2100
     64 H           2.0000   -2.5950    0.0000 H       1  UNL1        0.2100
     65 H           5.1350    4.2150    0.0000 H       1  UNL1        0.2095
     66 H           9.4651    2.7150    0.0000 H       1  UNL1        0.0692
     67 H           8.9282   -1.2150    0.0000 H       1  UNL1        0.2923
     68 H          12.6669    0.2621    0.0000 H       1  UNL1        0.0693
     69 H           8.3531    3.0950    0.0000 H       1  UNL1        0.0660
     70 H           7.7331    3.7150    0.0000 H       1  UNL1        0.0660
     71 H           7.1131    3.0950    0.0000 H       1  UNL1        0.0660
     72 H          13.8656    1.0025    0.0000 H       1  UNL1        0.0626
     73 H          12.4533    3.4271    0.0000 H       1  UNL1        0.0626
     74 H          15.2654    1.8179    0.0000 H       1  UNL1        0.0654
     75 H          13.8531    4.2425    0.0000 H       1  UNL1        0.0654
     76 H          16.1476    2.5944    0.0000 H       1  UNL1        0.0660
     77 H          16.9936    2.8246    0.0000 H       1  UNL1        0.0660
     78 H          16.7634    3.6706    0.0000 H       1  UNL1        0.0660
@<TRIPOS>BOND
     1    16     1    1
     2    19     1    1
     3     2    20    1
     4     2    22    1
     5     3    19    1
     6     3    25    1
     7    17     4    1
     8     4    60    1
     9    20     5    1
    10     5    28    1
    11    18     6    1
    12     6    61    1
    13    21     7    1
    14     7    62    1
    15    23     8    1
    16     8    63    1
    17    24     9    1
    18     9    64    1
    19    10    26    1
    20    10    65    1
    21    11    30    1
    22    11    37    1
    23    12    29    1
    24    12    67    1
    25    13    33   ar
    26    13    36   ar
    27    14    34    2
    28    15    43    1
    29    15    44    1
    30    16    17    1
    31    16    20    1
    32    16    45    1
    33    17    18    1
    34    17    46    1
    35    18    22    1
    36    18    47    1
    37    19    21    1
    38    19    48    1
    39    20    49    1
    40    21    23    1
    41    21    50    1
    42    22    26    1
    43    22    51    1
    44    23    24    1
    45    23    52    1
    46    24    25    1
    47    24    53    1
    48    25    27    1
    49    25    54    1
    50    26    55    1
    51    26    56    1
    52    27    57    1
    53    27    58    1
    54    27    59    1
    55    28    29   ar
    56    28    30   ar
    57    29    31   ar
    58    30    32   ar
    59    31    33   ar
    60    31    34   ar
    61    32    33   ar
    62    32    66    1
    63    34    35   ar
    64    35    36   ar
    65    35    68    1
    66    36    38    1
    67    37    69    1
    68    37    70    1
    69    37    71    1
    70    38    39   ar
    71    38    40   ar
    72    39    41   ar
    73    39    72    1
    74    40    42   ar
    75    40    73    1
    76    41    43   ar
    77    41    74    1
    78    42    43   ar
    79    42    75    1
    80    44    76    1
    81    44    77    1
    82    44    78    1
