@<TRIPOS>MOLECULE
IMPHY001697
 188 203 0 0 0
SMALL
GASTEIGER

@<TRIPOS>ATOM
      1 O          13.7235   -4.0177    0.0000 O.3     1  UNL1       -0.3281
      2 O          10.2965    4.0177    0.0000 O.3     1  UNL1       -0.3281
      3 O          16.1642   -6.0122    0.0000 O.3     1  UNL1       -0.4500
      4 O           7.8559    6.0122    0.0000 O.3     1  UNL1       -0.4500
      5 O          14.6056   -6.5592    0.0000 O.3     1  UNL1       -0.4512
      6 O           9.4144    6.5592    0.0000 O.3     1  UNL1       -0.4512
      7 O          16.1869   -3.0611    0.0000 O.3     1  UNL1       -0.4476
      8 O           7.8331    3.0611    0.0000 O.3     1  UNL1       -0.4476
      9 O          14.6177   -2.4900    0.0000 O.3     1  UNL1       -0.4274
     10 O           9.4023    2.4900    0.0000 O.3     1  UNL1       -0.4275
     11 O          12.6148   -6.5252    0.0000 O.3     1  UNL1       -0.4584
     12 O          11.4053    6.5252    0.0000 O.3     1  UNL1       -0.4584
     13 O          17.2314   -7.4000    0.0000 O.2     1  UNL1       -0.2449
     14 O           6.7886    7.4000    0.0000 O.2     1  UNL1       -0.2449
     15 O          13.1154   -7.3568    0.0000 O.2     1  UNL1       -0.2449
     16 O          10.9047    7.3568    0.0000 O.2     1  UNL1       -0.2449
     17 O          17.2755   -1.6899    0.0000 O.2     1  UNL1       -0.2449
     18 O           6.7446    1.6899    0.0000 O.2     1  UNL1       -0.2449
     19 O          12.8857   -2.4966    0.0000 O.2     1  UNL1       -0.2447
     20 O          11.1344    2.4966    0.0000 O.2     1  UNL1       -0.2449
     21 O          13.6148   -6.5252    0.0000 O.2     1  UNL1       -0.2449
     22 O          10.4052    6.5252    0.0000 O.2     1  UNL1       -0.2449
     23 O          12.0139   -1.0000    0.0000 O.3     1  UNL1       -0.4476
     24 O          21.2298   -5.0236    0.0000 O.3     1  UNL1       -0.5028
     25 O           2.7903    5.0236    0.0000 O.3     1  UNL1       -0.5028
     26 O          21.2367   -4.1277    0.0000 O.3     1  UNL1       -0.5028
     27 O           2.7834    4.1277    0.0000 O.3     1  UNL1       -0.5028
     28 O          14.1116  -10.8934    0.0000 O.3     1  UNL1       -0.5028
     29 O           9.9084   10.8934    0.0000 O.3     1  UNL1       -0.5028
     30 O          20.4093   -8.2550    0.0000 O.3     1  UNL1       -0.5032
     31 O           3.6107    8.2550    0.0000 O.3     1  UNL1       -0.5032
     32 O          20.4662   -0.8840    0.0000 O.3     1  UNL1       -0.5032
     33 O          21.7357   -6.4832    0.0000 O.3     1  UNL1       -0.5009
     34 O          13.1179  -10.8934    0.0000 O.3     1  UNL1       -0.5028
     35 O           3.5539    0.8840    0.0000 O.3     1  UNL1       -0.5032
     36 O           2.2843    6.4832    0.0000 O.3     1  UNL1       -0.5009
     37 O          10.9022   10.8934    0.0000 O.3     1  UNL1       -0.5028
     38 O          21.7651   -2.6760    0.0000 O.3     1  UNL1       -0.5009
     39 O           2.2550    2.6760    0.0000 O.3     1  UNL1       -0.5009
     40 O          17.1840   -9.1353    0.0000 O.3     1  UNL1       -0.5032
     41 O           6.8361    9.1353    0.0000 O.3     1  UNL1       -0.5032
     42 O          16.1599  -10.9092    0.0000 O.3     1  UNL1       -0.5009
     43 O           7.8602   10.9092    0.0000 O.3     1  UNL1       -0.5009
     44 O          11.0697  -10.9092    0.0000 O.3     1  UNL1       -0.5009
     45 O          10.0455   -9.1353    0.0000 O.3     1  UNL1       -0.5032
     46 O          12.9504   10.9092    0.0000 O.3     1  UNL1       -0.5009
     47 O          13.9746    9.1353    0.0000 O.3     1  UNL1       -0.5032
     48 O          12.0062    1.0000    0.0000 O.3     1  UNL1       -0.5008
     49 O           8.5498   -1.0134    0.0000 O.3     1  UNL1       -0.5032
     50 O          10.2857   -2.0067    0.0000 O.3     1  UNL1       -0.5009
     51 O          15.4703    1.0134    0.0000 O.3     1  UNL1       -0.5032
     52 O          13.7344    2.0067    0.0000 O.3     1  UNL1       -0.5008
     53 C          15.5156   -5.0524    0.0000 C.3     1  UNL1        0.1851
     54 C          14.6056   -5.5592    0.0000 C.3     1  UNL1        0.1730
     55 C           8.5044    5.0524    0.0000 C.3     1  UNL1        0.1851
     56 C           9.4144    5.5592    0.0000 C.3     1  UNL1        0.1730
     57 C          15.5237   -4.0108    0.0000 C.3     1  UNL1        0.2053
     58 C           8.4964    4.0108    0.0000 C.3     1  UNL1        0.2053
     59 C          13.7396   -5.0592    0.0000 C.3     1  UNL1        0.1371
     60 C          10.2805    5.0592    0.0000 C.3     1  UNL1        0.1371
     61 C          14.6216   -3.4900    0.0000 C.3     1  UNL1        0.2465
     62 C           9.3985    3.4900    0.0000 C.3     1  UNL1        0.2465
     63 C          12.8736   -5.5592    0.0000 C.3     1  UNL1        0.1226
     64 C          11.1465    5.5592    0.0000 C.3     1  UNL1        0.1226
     65 C          17.2556   -6.4002    0.0000 C.2     1  UNL1        0.3405
     66 C           6.7644    6.4002    0.0000 C.2     1  UNL1        0.3405
     67 C          14.1148   -7.3912    0.0000 C.2     1  UNL1        0.3405
     68 C           9.9053    7.3912    0.0000 C.2     1  UNL1        0.3405
     69 C          17.2842   -2.6899    0.0000 C.2     1  UNL1        0.3406
     70 C           6.7358    2.6899    0.0000 C.2     1  UNL1        0.3406
     71 C          18.3645   -6.0654    0.0000 C.ar    1  UNL1        0.0740
     72 C           5.6555    6.0654    0.0000 C.ar    1  UNL1        0.0740
     73 C          18.3878   -3.0418    0.0000 C.ar    1  UNL1        0.0740
     74 C          13.7498   -1.9933    0.0000 C.2     1  UNL1        0.3453
     75 C           5.6322    3.0418    0.0000 C.ar    1  UNL1        0.0740
     76 C          10.2703    1.9933    0.0000 C.2     1  UNL1        0.3417
     77 C          14.6148   -8.2572    0.0000 C.ar    1  UNL1        0.0740
     78 C           9.4053    8.2572    0.0000 C.ar    1  UNL1        0.0740
     79 C          19.0587   -5.1381    0.0000 C.ar    1  UNL1        0.0458
     80 C           4.9613    5.1381    0.0000 C.ar    1  UNL1        0.0458
     81 C          19.0677   -3.9797    0.0000 C.ar    1  UNL1        0.0458
     82 C           4.9524    3.9797    0.0000 C.ar    1  UNL1        0.0458
     83 C          13.1148   -7.3912    0.0000 C.2     1  UNL1        0.3401
     84 C          10.9053    7.3912    0.0000 C.2     1  UNL1        0.3401
     85 C          14.1148   -9.1232    0.0000 C.ar    1  UNL1        0.0458
     86 C           9.9053    9.1232    0.0000 C.ar    1  UNL1        0.0458
     87 C          12.6148   -8.2572    0.0000 C.ar    1  UNL1        0.0740
     88 C          11.4053    8.2572    0.0000 C.ar    1  UNL1        0.0740
     89 C          13.1148   -9.1232    0.0000 C.ar    1  UNL1        0.0458
     90 C          10.9053    9.1232    0.0000 C.ar    1  UNL1        0.0458
     91 C          13.7459   -0.9933    0.0000 C.ar    1  UNL1        0.1085
     92 C          10.2741    0.9933    0.0000 C.ar    1  UNL1        0.0662
     93 C          18.8223   -7.1818    0.0000 C.ar    1  UNL1       -0.0017
     94 C           5.1977    7.1818    0.0000 C.ar    1  UNL1       -0.0017
     95 C          18.8628   -1.9326    0.0000 C.ar    1  UNL1       -0.0017
     96 C           5.1573    1.9326    0.0000 C.ar    1  UNL1       -0.0017
     97 C          20.2589   -5.2628    0.0000 C.ar    1  UNL1        0.1708
     98 C           3.7612    5.2628    0.0000 C.ar    1  UNL1        0.1708
     99 C          15.6563   -8.2411    0.0000 C.ar    1  UNL1       -0.0017
    100 C          20.2696   -3.8735    0.0000 C.ar    1  UNL1        0.1708
    101 C           8.3638    8.2411    0.0000 C.ar    1  UNL1       -0.0017
    102 C           3.7505    3.8735    0.0000 C.ar    1  UNL1        0.1708
    103 C          14.6216  -10.0332    0.0000 C.ar    1  UNL1        0.1708
    104 C           9.3985   10.0332    0.0000 C.ar    1  UNL1        0.1708
    105 C          12.8780   -0.4967    0.0000 C.ar    1  UNL1        0.1876
    106 C          20.0193   -7.3342    0.0000 C.ar    1  UNL1        0.1628
    107 C           4.0008    7.3342    0.0000 C.ar    1  UNL1        0.1628
    108 C          20.0619   -1.7986    0.0000 C.ar    1  UNL1        0.1628
    109 C          20.7424   -6.3683    0.0000 C.ar    1  UNL1        0.2012
    110 C          12.6079  -10.0332    0.0000 C.ar    1  UNL1        0.1708
    111 C           3.9582    1.7986    0.0000 C.ar    1  UNL1        0.1628
    112 C           3.2777    6.3683    0.0000 C.ar    1  UNL1        0.2012
    113 C          11.4122   10.0332    0.0000 C.ar    1  UNL1        0.1708
    114 C          11.5733   -8.2411    0.0000 C.ar    1  UNL1       -0.0017
    115 C          20.7701   -2.7756    0.0000 C.ar    1  UNL1        0.2012
    116 C          12.4468    8.2411    0.0000 C.ar    1  UNL1       -0.0017
    117 C           3.2500    2.7756    0.0000 C.ar    1  UNL1        0.2012
    118 C          11.1421    0.4967    0.0000 C.ar    1  UNL1       -0.0015
    119 C          16.1840   -9.1392    0.0000 C.ar    1  UNL1        0.1628
    120 C           7.8360    9.1392    0.0000 C.ar    1  UNL1        0.1628
    121 C          14.6100   -0.4900    0.0000 C.ar    1  UNL1        0.0013
    122 C          15.6632  -10.0413    0.0000 C.ar    1  UNL1        0.2012
    123 C           9.4100    0.4900    0.0000 C.ar    1  UNL1       -0.0023
    124 C           8.3569   10.0413    0.0000 C.ar    1  UNL1        0.2012
    125 C          11.1459   -0.5033    0.0000 C.ar    1  UNL1        0.1743
    126 C          11.5663  -10.0413    0.0000 C.ar    1  UNL1        0.2012
    127 C          11.0455   -9.1392    0.0000 C.ar    1  UNL1        0.1628
    128 C          12.4538   10.0413    0.0000 C.ar    1  UNL1        0.2012
    129 C          12.9746    9.1392    0.0000 C.ar    1  UNL1        0.1628
    130 C          12.8741    0.5033    0.0000 C.ar    1  UNL1        0.2060
    131 C           9.4139   -0.5100    0.0000 C.ar    1  UNL1        0.1628
    132 C          10.2819   -1.0067    0.0000 C.ar    1  UNL1        0.2015
    133 C          14.6062    0.5100    0.0000 C.ar    1  UNL1        0.1630
    134 C          13.7382    1.0067    0.0000 C.ar    1  UNL1        0.2044
    135 H          15.3184   -5.8792    0.0000 H       1  UNL1        0.0813
    136 H          15.3385   -5.9899    0.0000 H       1  UNL1        0.0801
    137 H           8.7017    5.8792    0.0000 H       1  UNL1        0.0813
    138 H          10.1506    5.9842    0.0000 H       1  UNL1        0.0801
    139 H          15.3392   -3.1810    0.0000 H       1  UNL1        0.0837
    140 H           8.6809    3.1810    0.0000 H       1  UNL1        0.0837
    141 H          13.0002   -4.6399    0.0000 H       1  UNL1        0.0670
    142 H          11.0198    4.6399    0.0000 H       1  UNL1        0.0670
    143 H          14.0829   -3.1831    0.0000 H       1  UNL1        0.1098
    144 H           9.9372    3.1831    0.0000 H       1  UNL1        0.1098
    145 H          12.7131   -4.9604    0.0000 H       1  UNL1        0.0725
    146 H          12.2536   -5.5592    0.0000 H       1  UNL1        0.0725
    147 H          11.3070    4.9604    0.0000 H       1  UNL1        0.0725
    148 H          11.7665    5.5592    0.0000 H       1  UNL1        0.0725
    149 H          18.4451   -7.6738    0.0000 H       1  UNL1        0.0664
    150 H           5.5750    7.6738    0.0000 H       1  UNL1        0.0664
    151 H          18.4932   -1.4349    0.0000 H       1  UNL1        0.0664
    152 H           5.5269    1.4349    0.0000 H       1  UNL1        0.0664
    153 H          15.9600   -7.7006    0.0000 H       1  UNL1        0.0664
    154 H           8.0600    7.7006    0.0000 H       1  UNL1        0.0664
    155 H          11.2695   -7.7006    0.0000 H       1  UNL1        0.0664
    156 H          12.7506    7.7006    0.0000 H       1  UNL1        0.0664
    157 H          11.6778    0.8087    0.0000 H       1  UNL1        0.0664
    158 H          15.1481   -0.7979    0.0000 H       1  UNL1        0.0665
    159 H           8.8719    0.7979    0.0000 H       1  UNL1        0.0663
    160 H          21.6593   -5.4707    0.0000 H       1  UNL1        0.2923
    161 H           2.3608    5.4708    0.0000 H       1  UNL1        0.2923
    162 H          21.6730   -3.6872    0.0000 H       1  UNL1        0.2923
    163 H           2.3470    3.6872    0.0000 H       1  UNL1        0.2923
    164 H          14.4154  -11.4339    0.0000 H       1  UNL1        0.2923
    165 H           9.6047   11.4339    0.0000 H       1  UNL1        0.2923
    166 H          20.0359   -8.7499    0.0000 H       1  UNL1        0.2923
    167 H           3.9842    8.7499    0.0000 H       1  UNL1        0.2923
    168 H          20.1004   -0.3834    0.0000 H       1  UNL1        0.2923
    169 H          21.9820   -7.0522    0.0000 H       1  UNL1        0.2924
    170 H          12.8141  -11.4339    0.0000 H       1  UNL1        0.2923
    171 H           3.9197    0.3834    0.0000 H       1  UNL1        0.2923
    172 H           2.0381    7.0522    0.0000 H       1  UNL1        0.2924
    173 H          11.2059   11.4339    0.0000 H       1  UNL1        0.2923
    174 H          22.0201   -2.1108    0.0000 H       1  UNL1        0.2924
    175 H           2.0000    2.1108    0.0000 H       1  UNL1        0.2924
    176 H          17.4961   -9.6711    0.0000 H       1  UNL1        0.2923
    177 H           6.5240    9.6711    0.0000 H       1  UNL1        0.2923
    178 H          16.7799  -10.9116    0.0000 H       1  UNL1        0.2924
    179 H           7.2402   10.9116    0.0000 H       1  UNL1        0.2924
    180 H          10.4497  -10.9116    0.0000 H       1  UNL1        0.2924
    181 H           9.7376   -8.5972    0.0000 H       1  UNL1        0.2923
    182 H          13.5704   10.9116    0.0000 H       1  UNL1        0.2924
    183 H          14.2825    8.5972    0.0000 H       1  UNL1        0.2923
    184 H          12.0038    1.6200    0.0000 H       1  UNL1        0.2924
    185 H           8.0117   -0.7054    0.0000 H       1  UNL1        0.2923
    186 H           9.7500   -2.3187    0.0000 H       1  UNL1        0.2924
    187 H          16.0084    0.7054    0.0000 H       1  UNL1        0.2923
    188 H          14.2701    2.3187    0.0000 H       1  UNL1        0.2924
@<TRIPOS>BOND
     1     1    59    1
     2     1    61    1
     3     2    60    1
     4     2    62    1
     5     3    53    1
     6     3    65    1
     7     4    55    1
     8     4    66    1
     9     5    54    1
    10     5    67    1
    11     6    56    1
    12     6    68    1
    13     7    57    1
    14     7    69    1
    15     8    58    1
    16     8    70    1
    17    61     9    1
    18     9    74    1
    19    62    10    1
    20    10    76    1
    21    11    63    1
    22    11    83    1
    23    12    64    1
    24    12    84    1
    25    13    65    2
    26    14    66    2
    27    15    67    2
    28    16    68    2
    29    17    69    2
    30    18    70    2
    31    19    74    2
    32    20    76    2
    33    21    83    2
    34    22    84    2
    35    23   105    1
    36    23   125    1
    37    24    97    1
    38    24   160    1
    39    25    98    1
    40    25   161    1
    41    26   100    1
    42    26   162    1
    43    27   102    1
    44    27   163    1
    45    28   103    1
    46    28   164    1
    47    29   104    1
    48    29   165    1
    49    30   106    1
    50    30   166    1
    51    31   107    1
    52    31   167    1
    53    32   108    1
    54    32   168    1
    55    33   109    1
    56    33   169    1
    57    34   110    1
    58    34   170    1
    59    35   111    1
    60    35   171    1
    61    36   112    1
    62    36   172    1
    63    37   113    1
    64    37   173    1
    65    38   115    1
    66    38   174    1
    67    39   117    1
    68    39   175    1
    69    40   119    1
    70    40   176    1
    71    41   120    1
    72    41   177    1
    73    42   122    1
    74    42   178    1
    75    43   124    1
    76    43   179    1
    77    44   126    1
    78    44   180    1
    79    45   127    1
    80    45   181    1
    81    46   128    1
    82    46   182    1
    83    47   129    1
    84    47   183    1
    85    48   130    1
    86    48   184    1
    87    49   131    1
    88    49   185    1
    89    50   132    1
    90    50   186    1
    91    51   133    1
    92    51   187    1
    93    52   134    1
    94    52   188    1
    95    53    54    1
    96    53    57    1
    97    53   135    1
    98    54    59    1
    99    54   136    1
   100    55    56    1
   101    55    58    1
   102    55   137    1
   103    56    60    1
   104    56   138    1
   105    57    61    1
   106    57   139    1
   107    58    62    1
   108    58   140    1
   109    59    63    1
   110    59   141    1
   111    60    64    1
   112    60   142    1
   113    61   143    1
   114    62   144    1
   115    63   145    1
   116    63   146    1
   117    64   147    1
   118    64   148    1
   119    65    71    1
   120    66    72    1
   121    67    77    1
   122    68    78    1
   123    69    73    1
   124    70    75    1
   125    71    79   ar
   126    71    93   ar
   127    72    80   ar
   128    72    94   ar
   129    73    81   ar
   130    73    95   ar
   131    74    91    1
   132    75    82   ar
   133    75    96   ar
   134    76    92    1
   135    77    85   ar
   136    77    99   ar
   137    78    86   ar
   138    78   101   ar
   139    79    81    1
   140    79    97   ar
   141    80    82    1
   142    80    98   ar
   143    81   100   ar
   144    82   102   ar
   145    83    87    1
   146    84    88    1
   147    85    89    1
   148    85   103   ar
   149    86    90    1
   150    86   104   ar
   151    87    89   ar
   152    87   114   ar
   153    88    90   ar
   154    88   116   ar
   155    89   110   ar
   156    90   113   ar
   157    91   105   ar
   158    91   121   ar
   159    92   118   ar
   160    92   123   ar
   161    93   106   ar
   162    93   149    1
   163    94   107   ar
   164    94   150    1
   165    95   108   ar
   166    95   151    1
   167    96   111   ar
   168    96   152    1
   169    97   109   ar
   170    98   112   ar
   171    99   119   ar
   172    99   153    1
   173   100   115   ar
   174   101   120   ar
   175   101   154    1
   176   102   117   ar
   177   103   122   ar
   178   104   124   ar
   179   105   130   ar
   180   106   109   ar
   181   107   112   ar
   182   108   115   ar
   183   110   126   ar
   184   111   117   ar
   185   113   128   ar
   186   114   127   ar
   187   114   155    1
   188   116   129   ar
   189   116   156    1
   190   118   125   ar
   191   118   157    1
   192   119   122   ar
   193   120   124   ar
   194   121   133   ar
   195   121   158    1
   196   123   131   ar
   197   123   159    1
   198   125   132   ar
   199   126   127   ar
   200   128   129   ar
   201   130   134   ar
   202   131   132   ar
   203   133   134   ar
