@<TRIPOS>MOLECULE
IMPHY004701
 36 38 0 0 0
SMALL
GASTEIGER

@<TRIPOS>ATOM
      1 O           6.0682   -0.9777    0.0000 O.2     1  UNL1       -0.4583
      2 O           6.0682    2.0223    0.0000 O.2     1  UNL1       -0.2864
      3 O           2.5381   -1.0019    0.0000 O.3     1  UNL1       -0.5059
      4 O           5.1916   -2.5023    0.0000 O.2     1  UNL1       -0.2921
      5 C           5.2022    0.5223    0.0000 C.ar    1  UNL1        0.0655
      6 C           5.2022   -0.4777    0.0000 C.ar    1  UNL1        0.1527
      7 C           6.9343    0.5223    0.0000 C.ar    1  UNL1        0.0672
      8 C           6.0682    1.0223    0.0000 C.ar    1  UNL1        0.2004
      9 C           6.9343   -0.4777    0.0000 C.ar    1  UNL1        0.1140
     10 C           4.3083   -1.0124    0.0000 C.ar    1  UNL1        0.1013
     11 C           7.8003    1.0223    0.0000 C.ar    1  UNL1       -0.0110
     12 C           4.3083    1.0570    0.0000 C.ar    1  UNL1       -0.0439
     13 C           3.4022   -0.4985    0.0000 C.ar    1  UNL1        0.1309
     14 C           3.4022    0.5431    0.0000 C.ar    1  UNL1       -0.0186
     15 C           7.8003   -0.9777    0.0000 C.3     1  UNL1       -0.0056
     16 C           4.3198   -2.0123    0.0000 C.2     1  UNL1        0.1672
     17 C           8.6663    0.5223    0.0000 C.ar    1  UNL1       -0.0538
     18 C           7.8003    2.0223    0.0000 C.ar    1  UNL1       -0.0538
     19 C           9.5323    1.0223    0.0000 C.ar    1  UNL1       -0.0612
     20 C           8.6663    2.5223    0.0000 C.ar    1  UNL1       -0.0612
     21 C           3.4597   -2.5223    0.0000 C.3     1  UNL1       -0.0012
     22 C           9.5323    2.0223    0.0000 C.ar    1  UNL1       -0.0617
     23 H           4.3154    1.6769    0.0000 H       1  UNL1        0.0627
     24 H           2.8665    0.8552    0.0000 H       1  UNL1        0.0654
     25 H           7.4903   -1.5146    0.0000 H       1  UNL1        0.0308
     26 H           8.3372   -1.2877    0.0000 H       1  UNL1        0.0308
     27 H           8.1103   -0.4408    0.0000 H       1  UNL1        0.0308
     28 H           8.6663   -0.0977    0.0000 H       1  UNL1        0.0624
     29 H           7.2634    2.3323    0.0000 H       1  UNL1        0.0624
     30 H          10.0693    0.7123    0.0000 H       1  UNL1        0.0618
     31 H           8.6663    3.1423    0.0000 H       1  UNL1        0.0618
     32 H           3.1435   -1.9890    0.0000 H       1  UNL1        0.0309
     33 H           2.9263   -2.8385    0.0000 H       1  UNL1        0.0309
     34 H           3.7758   -3.0556    0.0000 H       1  UNL1        0.0309
     35 H          10.0693    2.3323    0.0000 H       1  UNL1        0.0618
     36 H           2.0000   -0.6939    0.0000 H       1  UNL1        0.2922
@<TRIPOS>BOND
     1     1     6   ar
     2     1     9   ar
     3     2     8    2
     4     3    13    1
     5     3    36    1
     6     4    16    2
     7     5     6   ar
     8     5     8   ar
     9     5    12   ar
    10     6    10   ar
    11     7     8   ar
    12     7     9   ar
    13     7    11    1
    14     9    15    1
    15    10    13   ar
    16    10    16    1
    17    11    17   ar
    18    11    18   ar
    19    12    14   ar
    20    12    23    1
    21    13    14   ar
    22    14    24    1
    23    15    25    1
    24    15    26    1
    25    15    27    1
    26    16    21    1
    27    17    19   ar
    28    17    28    1
    29    18    20   ar
    30    18    29    1
    31    19    22   ar
    32    19    30    1
    33    20    22   ar
    34    20    31    1
    35    21    32    1
    36    21    33    1
    37    21    34    1
    38    22    35    1
