@<TRIPOS>MOLECULE
IMPHY008068
 44 47 0 0 0
SMALL
GASTEIGER

@<TRIPOS>ATOM
      1 O          10.4728   -1.5545    0.0000 O.3     1  UNL1       -0.4852
      2 O          13.0564   -0.7497    0.0000 O.3     1  UNL1       -0.3855
      3 O           6.9006   -1.7844    0.0000 O.2     1  UNL1       -0.4618
      4 O           8.6605    1.2502    0.0000 O.3     1  UNL1       -0.5055
      5 O           6.9121    1.2848    0.0000 O.2     1  UNL1       -0.2863
      6 O           2.5381    1.7844    0.0000 O.3     1  UNL1       -0.5068
      7 C          11.0564   -0.7497    0.0000 C.3     1  UNL1        0.1323
      8 C          12.0564   -0.7497    0.0000 C.3     1  UNL1        0.0974
      9 C          10.4728    0.0550    0.0000 C.3     1  UNL1        0.0192
     10 C           9.5266   -0.2497    0.0000 C.ar    1  UNL1        0.0401
     11 C           9.5266   -1.2498    0.0000 C.ar    1  UNL1        0.1313
     12 C          12.0564   -1.7498    0.0000 C.3     1  UNL1       -0.0328
     13 C          12.0564    0.2503    0.0000 C.3     1  UNL1       -0.0328
     14 C           8.6605    0.2503    0.0000 C.ar    1  UNL1        0.1380
     15 C           8.6605   -1.7498    0.0000 C.ar    1  UNL1        0.0236
     16 C           7.7945   -0.2497    0.0000 C.ar    1  UNL1        0.1063
     17 C           7.7945   -1.2498    0.0000 C.ar    1  UNL1        0.1454
     18 C           6.9006    0.2849    0.0000 C.ar    1  UNL1        0.2037
     19 C           5.9945   -0.2289    0.0000 C.ar    1  UNL1        0.0644
     20 C           5.9945   -1.2706    0.0000 C.ar    1  UNL1        0.1038
     21 C           5.1304    0.2744    0.0000 C.ar    1  UNL1       -0.0110
     22 C           5.1343    1.2744    0.0000 C.ar    1  UNL1       -0.0504
     23 C           4.2625   -0.2223    0.0000 C.ar    1  UNL1       -0.0504
     24 C           4.2702    1.7777    0.0000 C.ar    1  UNL1       -0.0196
     25 C           3.3984    0.2811    0.0000 C.ar    1  UNL1       -0.0196
     26 C           3.4022    1.2811    0.0000 C.ar    1  UNL1        0.1169
     27 H          11.3381   -1.3020    0.0000 H       1  UNL1        0.0765
     28 H          11.0102    0.3642    0.0000 H       1  UNL1        0.0352
     29 H          10.2217    0.6219    0.0000 H       1  UNL1        0.0352
     30 H          11.4364   -1.7498    0.0000 H       1  UNL1        0.0258
     31 H          12.6764    0.2503    0.0000 H       1  UNL1        0.0258
     32 H          12.0564    0.8703    0.0000 H       1  UNL1        0.0258
     33 H          11.4364    0.2503    0.0000 H       1  UNL1        0.0258
     34 H          12.0564   -2.3697    0.0000 H       1  UNL1        0.0258
     35 H          12.6764   -1.7498    0.0000 H       1  UNL1        0.0258
     36 H           8.6605   -2.3697    0.0000 H       1  UNL1        0.0691
     37 H          13.3664   -1.2867    0.0000 H       1  UNL1        0.2103
     38 H           9.1975    1.5602    0.0000 H       1  UNL1        0.2922
     39 H           5.4588   -1.5826    0.0000 H       1  UNL1        0.1037
     40 H           5.6724    1.5823    0.0000 H       1  UNL1        0.0625
     41 H           4.2601   -0.8422    0.0000 H       1  UNL1        0.0625
     42 H           4.2726    2.3977    0.0000 H       1  UNL1        0.0654
     43 H           2.8602   -0.0268    0.0000 H       1  UNL1        0.0654
     44 H           2.0000    1.4765    0.0000 H       1  UNL1        0.2921
@<TRIPOS>BOND
     1     1     7    1
     2     1    11    1
     3     2     8    1
     4     2    37    1
     5     3    17   ar
     6     3    20   ar
     7     4    14    1
     8     4    38    1
     9     5    18    2
    10     6    26    1
    11     6    44    1
    12     7     8    1
    13     7     9    1
    14     7    27    1
    15     8    12    1
    16     8    13    1
    17     9    10    1
    18     9    28    1
    19     9    29    1
    20    10    11   ar
    21    10    14   ar
    22    11    15   ar
    23    12    30    1
    24    12    34    1
    25    12    35    1
    26    13    31    1
    27    13    32    1
    28    13    33    1
    29    14    16   ar
    30    15    17   ar
    31    15    36    1
    32    16    17   ar
    33    16    18   ar
    34    18    19   ar
    35    19    20   ar
    36    19    21    1
    37    20    39    1
    38    21    22   ar
    39    21    23   ar
    40    22    24   ar
    41    22    40    1
    42    23    25   ar
    43    23    41    1
    44    24    26   ar
    45    24    42    1
    46    25    26   ar
    47    25    43    1
