@<TRIPOS>MOLECULE
IMPHY015135
 58 57 0 0 0
SMALL
GASTEIGER

@<TRIPOS>ATOM
      1 O           2.8660    1.0000    0.0000 O.3     1  UNL1       -0.3545
      2 O           3.7320   -0.5000    0.0000 O.3     1  UNL1       -0.3545
      3 C           9.7942    1.0000    0.0000 C.3     1  UNL1       -0.0531
      4 C           8.9282    0.5000    0.0000 C.3     1  UNL1       -0.0531
      5 C          10.6603    0.5000    0.0000 C.3     1  UNL1       -0.0531
      6 C           8.0622    1.0000    0.0000 C.3     1  UNL1       -0.0531
      7 C          11.5263    1.0000    0.0000 C.3     1  UNL1       -0.0531
      8 C           7.1962    0.5000    0.0000 C.3     1  UNL1       -0.0531
      9 C          12.3923    0.5000    0.0000 C.3     1  UNL1       -0.0531
     10 C           6.3301    1.0000    0.0000 C.3     1  UNL1       -0.0529
     11 C          13.2583    1.0000    0.0000 C.3     1  UNL1       -0.0531
     12 C           5.4641    0.5000    0.0000 C.3     1  UNL1       -0.0485
     13 C          14.1244    0.5000    0.0000 C.3     1  UNL1       -0.0531
     14 C           4.5981    1.0000    0.0000 C.3     1  UNL1       -0.0016
     15 C          14.9904    1.0000    0.0000 C.3     1  UNL1       -0.0533
     16 C          15.8564    0.5000    0.0000 C.3     1  UNL1       -0.0559
     17 C           3.7320    0.5000    0.0000 C.3     1  UNL1        0.1584
     18 C          16.7224    1.0000    0.0000 C.3     1  UNL1       -0.0653
     19 C           2.0000    0.5000    0.0000 C.3     1  UNL1        0.0394
     20 C           2.8660   -1.0000    0.0000 C.3     1  UNL1        0.0394
     21 H          10.1928    1.4750    0.0000 H       1  UNL1        0.0265
     22 H           9.3957    1.4750    0.0000 H       1  UNL1        0.0265
     23 H           8.5297    0.0251    0.0000 H       1  UNL1        0.0265
     24 H           9.3267    0.0251    0.0000 H       1  UNL1        0.0265
     25 H          10.2617    0.0251    0.0000 H       1  UNL1        0.0265
     26 H          11.0588    0.0251    0.0000 H       1  UNL1        0.0265
     27 H           8.4607    1.4750    0.0000 H       1  UNL1        0.0265
     28 H           7.6636    1.4750    0.0000 H       1  UNL1        0.0265
     29 H          11.9248    1.4750    0.0000 H       1  UNL1        0.0265
     30 H          11.1278    1.4750    0.0000 H       1  UNL1        0.0265
     31 H           6.7976    0.0251    0.0000 H       1  UNL1        0.0265
     32 H           7.5947    0.0251    0.0000 H       1  UNL1        0.0265
     33 H          11.9938    0.0251    0.0000 H       1  UNL1        0.0265
     34 H          12.7908    0.0251    0.0000 H       1  UNL1        0.0265
     35 H           6.7287    1.4750    0.0000 H       1  UNL1        0.0265
     36 H           5.9316    1.4750    0.0000 H       1  UNL1        0.0265
     37 H          13.6569    1.4750    0.0000 H       1  UNL1        0.0265
     38 H          12.8598    1.4750    0.0000 H       1  UNL1        0.0265
     39 H           5.0656    0.0251    0.0000 H       1  UNL1        0.0267
     40 H           5.8626    0.0251    0.0000 H       1  UNL1        0.0267
     41 H          13.7258    0.0251    0.0000 H       1  UNL1        0.0265
     42 H          14.5229    0.0251    0.0000 H       1  UNL1        0.0265
     43 H           4.9966    1.4750    0.0000 H       1  UNL1        0.0314
     44 H           4.1996    1.4750    0.0000 H       1  UNL1        0.0314
     45 H          15.3889    1.4750    0.0000 H       1  UNL1        0.0265
     46 H          14.5919    1.4750    0.0000 H       1  UNL1        0.0265
     47 H          15.4579    0.0251    0.0000 H       1  UNL1        0.0263
     48 H          16.2549    0.0251    0.0000 H       1  UNL1        0.0263
     49 H           3.7320    1.1200    0.0000 H       1  UNL1        0.0909
     50 H          17.0324    0.4631    0.0000 H       1  UNL1        0.0230
     51 H          17.2594    1.3100    0.0000 H       1  UNL1        0.0230
     52 H          16.4124    1.5369    0.0000 H       1  UNL1        0.0230
     53 H           1.6900    1.0369    0.0000 H       1  UNL1        0.0525
     54 H           1.4631    0.1900    0.0000 H       1  UNL1        0.0525
     55 H           2.3100   -0.0369    0.0000 H       1  UNL1        0.0525
     56 H           2.5560   -0.4631    0.0000 H       1  UNL1        0.0525
     57 H           2.3291   -1.3100    0.0000 H       1  UNL1        0.0525
     58 H           3.1760   -1.5369    0.0000 H       1  UNL1        0.0525
@<TRIPOS>BOND
     1     1    17    1
     2     1    19    1
     3     2    17    1
     4     2    20    1
     5     3     4    1
     6     3     5    1
     7     3    21    1
     8     3    22    1
     9     4     6    1
    10     4    23    1
    11     4    24    1
    12     5     7    1
    13     5    25    1
    14     5    26    1
    15     6     8    1
    16     6    27    1
    17     6    28    1
    18     7     9    1
    19     7    29    1
    20     7    30    1
    21     8    10    1
    22     8    31    1
    23     8    32    1
    24     9    11    1
    25     9    33    1
    26     9    34    1
    27    10    12    1
    28    10    35    1
    29    10    36    1
    30    11    13    1
    31    11    37    1
    32    11    38    1
    33    12    14    1
    34    12    39    1
    35    12    40    1
    36    13    15    1
    37    13    41    1
    38    13    42    1
    39    14    17    1
    40    14    43    1
    41    14    44    1
    42    15    16    1
    43    15    45    1
    44    15    46    1
    45    16    18    1
    46    16    47    1
    47    16    48    1
    48    17    49    1
    49    18    50    1
    50    18    51    1
    51    18    52    1
    52    19    53    1
    53    19    54    1
    54    19    55    1
    55    20    56    1
    56    20    57    1
    57    20    58    1
