@<TRIPOS>MOLECULE
IMPHY000788
 46 48 0 0 0
SMALL
GASTEIGER

@<TRIPOS>ATOM
      1 O           2.0000    0.7722    0.0000 O.3     1  UNL1       -0.4914
      2 O           2.0000    2.7722    0.0000 O.3     1  UNL1       -0.4914
      3 O           7.1777   -3.2822    0.0000 O.3     1  UNL1       -0.4914
      4 O           8.9212   -2.3023    0.0000 O.3     1  UNL1       -0.4915
      5 N           6.3981    1.2514    0.0000 N.ar    1  UNL1       -0.2589
      6 C           4.5981    1.2722    0.0000 C.ar    1  UNL1        0.0074
      7 C           5.4804   -0.2624    0.0000 C.3     1  UNL1        0.0155
      8 C           5.4920    0.7375    0.0000 C.ar    1  UNL1        0.0534
      9 C           4.5981    2.2722    0.0000 C.ar    1  UNL1       -0.0110
     10 C           6.3406   -0.7724    0.0000 C.ar    1  UNL1       -0.0379
     11 C           3.7320    0.7722    0.0000 C.ar    1  UNL1       -0.0069
     12 C           3.7320    2.7722    0.0000 C.ar    1  UNL1       -0.0085
     13 C           2.8660    1.2722    0.0000 C.ar    1  UNL1        0.1621
     14 C           5.4920    2.8068    0.0000 C.ar    1  UNL1       -0.0357
     15 C           2.8660    2.2722    0.0000 C.ar    1  UNL1        0.1621
     16 C           6.3291   -1.7723    0.0000 C.ar    1  UNL1       -0.0128
     17 C           7.2124   -0.2824    0.0000 C.ar    1  UNL1       -0.0545
     18 C           6.3981    2.2930    0.0000 C.ar    1  UNL1        0.0285
     19 C           7.1893   -2.2823    0.0000 C.ar    1  UNL1        0.1618
     20 C           8.0610   -1.7924    0.0000 C.ar    1  UNL1        0.1615
     21 C           8.0726   -0.7924    0.0000 C.ar    1  UNL1       -0.0160
     22 C           2.0000   -0.2278    0.0000 C.3     1  UNL1        0.0790
     23 C           2.0000    3.7722    0.0000 C.3     1  UNL1        0.0790
     24 C           6.3060   -3.7722    0.0000 C.3     1  UNL1        0.0790
     25 C           9.7930   -1.8124    0.0000 C.3     1  UNL1        0.0790
     26 H           4.8712   -0.1477    0.0000 H       1  UNL1        0.0377
     27 H           5.2617   -0.8425    0.0000 H       1  UNL1        0.0377
     28 H           3.7320    0.1522    0.0000 H       1  UNL1        0.0662
     29 H           3.7320    3.3922    0.0000 H       1  UNL1        0.0661
     30 H           5.4848    3.4268    0.0000 H       1  UNL1        0.0639
     31 H           5.7886   -2.0761    0.0000 H       1  UNL1        0.0658
     32 H           7.2196    0.3375    0.0000 H       1  UNL1        0.0622
     33 H           6.9338    2.6051    0.0000 H       1  UNL1        0.0830
     34 H           8.6131   -0.4886    0.0000 H       1  UNL1        0.0655
     35 H           1.3800   -0.2278    0.0000 H       1  UNL1        0.0660
     36 H           2.0000   -0.8478    0.0000 H       1  UNL1        0.0660
     37 H           2.6200   -0.2278    0.0000 H       1  UNL1        0.0660
     38 H           2.6200    3.7722    0.0000 H       1  UNL1        0.0660
     39 H           2.0000    4.3922    0.0000 H       1  UNL1        0.0660
     40 H           1.3800    3.7722    0.0000 H       1  UNL1        0.0660
     41 H           6.0022   -3.2317    0.0000 H       1  UNL1        0.0660
     42 H           5.7655   -4.0760    0.0000 H       1  UNL1        0.0660
     43 H           6.6097   -4.3127    0.0000 H       1  UNL1        0.0660
     44 H          10.0967   -2.3529    0.0000 H       1  UNL1        0.0660
     45 H          10.3334   -1.5086    0.0000 H       1  UNL1        0.0660
     46 H           9.4892   -1.2719    0.0000 H       1  UNL1        0.0660
@<TRIPOS>BOND
     1     1    13    1
     2     1    22    1
     3     2    15    1
     4     2    23    1
     5     3    19    1
     6     3    24    1
     7     4    20    1
     8     4    25    1
     9     5     8   ar
    10     5    18   ar
    11     6     8   ar
    12     6     9   ar
    13     6    11   ar
    14     7     8    1
    15     7    10    1
    16     7    26    1
    17     7    27    1
    18     9    12   ar
    19     9    14   ar
    20    10    16   ar
    21    10    17   ar
    22    11    13   ar
    23    11    28    1
    24    12    15   ar
    25    12    29    1
    26    13    15   ar
    27    14    18   ar
    28    14    30    1
    29    16    19   ar
    30    16    31    1
    31    17    21   ar
    32    17    32    1
    33    18    33    1
    34    19    20   ar
    35    20    21   ar
    36    21    34    1
    37    22    35    1
    38    22    36    1
    39    22    37    1
    40    23    38    1
    41    23    39    1
    42    23    40    1
    43    24    41    1
    44    24    42    1
    45    24    43    1
    46    25    44    1
    47    25    45    1
    48    25    46    1
