@<TRIPOS>MOLECULE
IMPHY011151
 103 107 0 0 0
SMALL
GASTEIGER

@<TRIPOS>ATOM
      1 O           6.0010   -1.3450    0.0000 O.3     1  UNL1       -0.3389
      2 O           4.2690   -1.3450    0.0000 O.3     1  UNL1       -0.3431
      3 O           6.0010   -3.3450    0.0000 O.3     1  UNL1       -0.3378
      4 O           6.0010    1.6550    0.0000 O.3     1  UNL1       -0.3394
      5 O           7.7331   -0.3450    0.0000 O.3     1  UNL1       -0.4528
      6 O           4.2690   -4.3450    0.0000 O.3     1  UNL1       -0.3864
      7 O           2.5369   -3.3450    0.0000 O.3     1  UNL1       -0.3866
      8 O           4.2690   -0.3450    0.0000 O.3     1  UNL1       -0.3841
      9 O           5.1350   -4.8450    0.0000 O.3     1  UNL1       -0.3461
     10 O           4.2690    1.6550    0.0000 O.3     1  UNL1       -0.3484
     11 O           7.7331   -4.3450    0.0000 O.3     1  UNL1       -0.3841
     12 O           7.7331    2.6550    0.0000 O.3     1  UNL1       -0.3923
     13 O           7.7331   -6.3450    0.0000 O.3     1  UNL1       -0.3864
     14 O           6.0010   -7.3450    0.0000 O.3     1  UNL1       -0.3869
     15 O           8.5991    1.1550    0.0000 O.2     1  UNL1       -0.2456
     16 O           5.1350    6.1550    0.0000 O.3     1  UNL1       -0.5033
     17 O           3.4030    7.1550    0.0000 O.3     1  UNL1       -0.4915
     18 O          12.0632   -2.8450    0.0000 O.3     1  UNL1       -0.4914
     19 O          13.7953   -1.8450    0.0000 O.3     1  UNL1       -0.5033
     20 C           5.1350   -2.8450    0.0000 C.3     1  UNL1        0.1406
     21 C           6.0010   -0.3450    0.0000 C.3     1  UNL1        0.1316
     22 C           5.1350   -1.8450    0.0000 C.3     1  UNL1        0.1887
     23 C           4.2690   -3.3450    0.0000 C.3     1  UNL1        0.1143
     24 C           6.8671    0.1550    0.0000 C.3     1  UNL1        0.1602
     25 C           3.4030   -2.8450    0.0000 C.3     1  UNL1        0.1095
     26 C           5.1350    0.1550    0.0000 C.3     1  UNL1        0.1355
     27 C           3.4030   -1.8450    0.0000 C.3     1  UNL1        0.0873
     28 C           6.8671    1.1550    0.0000 C.3     1  UNL1        0.1240
     29 C           5.1350    1.1550    0.0000 C.3     1  UNL1        0.1880
     30 C           6.0010   -4.3450    0.0000 C.3     1  UNL1        0.1881
     31 C           6.8671   -4.8450    0.0000 C.3     1  UNL1        0.1341
     32 C           7.7331    1.6550    0.0000 C.3     1  UNL1        0.0741
     33 C           2.5369   -1.3450    0.0000 C.3     1  UNL1       -0.0361
     34 C           6.8671   -5.8450    0.0000 C.3     1  UNL1        0.1137
     35 C           6.0010   -6.3450    0.0000 C.3     1  UNL1        0.1069
     36 C           5.1350   -5.8450    0.0000 C.3     1  UNL1        0.0792
     37 C           4.2690    2.6550    0.0000 C.3     1  UNL1        0.0547
     38 C           8.5991    0.1550    0.0000 C.2     1  UNL1        0.3324
     39 C           3.4030    3.1550    0.0000 C.3     1  UNL1       -0.0039
     40 C           9.4651   -0.3450    0.0000 C.2     1  UNL1        0.0231
     41 C           3.4030    4.1550    0.0000 C.ar    1  UNL1       -0.0415
     42 C          10.3312    0.1550    0.0000 C.2     1  UNL1       -0.0477
     43 C           4.2690    4.6550    0.0000 C.ar    1  UNL1       -0.0133
     44 C           2.5369    4.6550    0.0000 C.ar    1  UNL1       -0.0548
     45 C           4.2690    5.6550    0.0000 C.ar    1  UNL1        0.1587
     46 C          11.1972   -0.3450    0.0000 C.ar    1  UNL1       -0.0211
     47 C           2.5369    5.6550    0.0000 C.ar    1  UNL1       -0.0161
     48 C           3.4030    6.1550    0.0000 C.ar    1  UNL1        0.1613
     49 C          11.1972   -1.3450    0.0000 C.ar    1  UNL1       -0.0092
     50 C          12.0632    0.1550    0.0000 C.ar    1  UNL1       -0.0509
     51 C          12.0632   -1.8450    0.0000 C.ar    1  UNL1        0.1618
     52 C          12.9292   -0.3450    0.0000 C.ar    1  UNL1       -0.0160
     53 C          12.9292   -1.3450    0.0000 C.ar    1  UNL1        0.1585
     54 C           2.5369    7.6550    0.0000 C.3     1  UNL1        0.0790
     55 C          12.9292   -3.3450    0.0000 C.3     1  UNL1        0.0790
     56 H           5.1350   -3.4650    0.0000 H       1  UNL1        0.0675
     57 H           6.5380   -0.6550    0.0000 H       1  UNL1        0.0663
     58 H           5.6720   -2.1550    0.0000 H       1  UNL1        0.0938
     59 H           3.7320   -3.6550    0.0000 H       1  UNL1        0.0648
     60 H           7.4040    0.4650    0.0000 H       1  UNL1        0.0788
     61 H           2.8660   -2.5350    0.0000 H       1  UNL1        0.0646
     62 H           5.1350   -0.4650    0.0000 H       1  UNL1        0.0671
     63 H           3.4030   -1.2250    0.0000 H       1  UNL1        0.0621
     64 H           6.8671    1.7750    0.0000 H       1  UNL1        0.0658
     65 H           4.5981    0.8450    0.0000 H       1  UNL1        0.0937
     66 H           6.5380   -4.0350    0.0000 H       1  UNL1        0.0937
     67 H           7.4040   -5.1550    0.0000 H       1  UNL1        0.0671
     68 H           7.9451    1.0724    0.0000 H       1  UNL1        0.0584
     69 H           8.3437    1.7627    0.0000 H       1  UNL1        0.0584
     70 H           2.8469   -0.8081    0.0000 H       1  UNL1        0.0255
     71 H           2.0000   -1.0350    0.0000 H       1  UNL1        0.0255
     72 H           2.2269   -1.8819    0.0000 H       1  UNL1        0.0255
     73 H           6.8671   -6.4650    0.0000 H       1  UNL1        0.0647
     74 H           5.4641   -6.6550    0.0000 H       1  UNL1        0.0643
     75 H           3.7320   -4.6550    0.0000 H       1  UNL1        0.2100
     76 H           4.5244   -5.7373    0.0000 H       1  UNL1        0.0587
     77 H           4.9230   -6.4276    0.0000 H       1  UNL1        0.0587
     78 H           2.0000   -3.0350    0.0000 H       1  UNL1        0.2100
     79 H           3.7320   -0.0350    0.0000 H       1  UNL1        0.2101
     80 H           4.8796    2.5473    0.0000 H       1  UNL1        0.0564
     81 H           4.4810    3.2376    0.0000 H       1  UNL1        0.0564
     82 H           8.2700   -4.6550    0.0000 H       1  UNL1        0.2101
     83 H           8.2700    2.9650    0.0000 H       1  UNL1        0.2095
     84 H           7.7331   -6.9650    0.0000 H       1  UNL1        0.2100
     85 H           5.4641   -7.6550    0.0000 H       1  UNL1        0.2100
     86 H           2.7924    3.2627    0.0000 H       1  UNL1        0.0335
     87 H           3.1909    2.5724    0.0000 H       1  UNL1        0.0335
     88 H           9.4651   -0.9650    0.0000 H       1  UNL1        0.0689
     89 H          10.3312    0.7750    0.0000 H       1  UNL1        0.0626
     90 H           4.8059    4.3450    0.0000 H       1  UNL1        0.0658
     91 H           2.0000    4.3450    0.0000 H       1  UNL1        0.0621
     92 H           2.0000    5.9650    0.0000 H       1  UNL1        0.0655
     93 H          10.6603   -1.6550    0.0000 H       1  UNL1        0.0661
     94 H          12.0632    0.7750    0.0000 H       1  UNL1        0.0625
     95 H           5.1350    6.7750    0.0000 H       1  UNL1        0.2923
     96 H          13.4662   -0.0350    0.0000 H       1  UNL1        0.0655
     97 H           2.8469    8.1919    0.0000 H       1  UNL1        0.0660
     98 H           2.0000    7.9650    0.0000 H       1  UNL1        0.0660
     99 H           2.2269    7.1181    0.0000 H       1  UNL1        0.0660
    100 H          14.3322   -1.5350    0.0000 H       1  UNL1        0.2923
    101 H          12.6192   -3.8819    0.0000 H       1  UNL1        0.0660
    102 H          13.4662   -3.6550    0.0000 H       1  UNL1        0.0660
    103 H          13.2392   -2.8081    0.0000 H       1  UNL1        0.0660
@<TRIPOS>BOND
     1    21     1    1
     2    22     1    1
     3     2    22    1
     4     2    27    1
     5    20     3    1
     6    30     3    1
     7     4    28    1
     8     4    29    1
     9    24     5    1
    10     5    38    1
    11    23     6    1
    12     6    75    1
    13    25     7    1
    14     7    78    1
    15    26     8    1
    16     8    79    1
    17     9    30    1
    18     9    36    1
    19    29    10    1
    20    10    37    1
    21    31    11    1
    22    11    82    1
    23    12    32    1
    24    12    83    1
    25    34    13    1
    26    13    84    1
    27    35    14    1
    28    14    85    1
    29    15    38    2
    30    16    45    1
    31    16    95    1
    32    17    48    1
    33    17    54    1
    34    18    51    1
    35    18    55    1
    36    19    53    1
    37    19   100    1
    38    20    22    1
    39    20    23    1
    40    20    56    1
    41    21    24    1
    42    21    26    1
    43    21    57    1
    44    22    58    1
    45    23    25    1
    46    23    59    1
    47    24    28    1
    48    24    60    1
    49    25    27    1
    50    25    61    1
    51    26    29    1
    52    26    62    1
    53    27    33    1
    54    27    63    1
    55    28    32    1
    56    28    64    1
    57    29    65    1
    58    30    31    1
    59    30    66    1
    60    31    34    1
    61    31    67    1
    62    32    68    1
    63    32    69    1
    64    33    70    1
    65    33    71    1
    66    33    72    1
    67    34    35    1
    68    34    73    1
    69    35    36    1
    70    35    74    1
    71    36    76    1
    72    36    77    1
    73    37    39    1
    74    37    80    1
    75    37    81    1
    76    38    40    1
    77    39    41    1
    78    39    86    1
    79    39    87    1
    80    40    42    2
    81    40    88    1
    82    41    43   ar
    83    41    44   ar
    84    42    46    1
    85    42    89    1
    86    43    45   ar
    87    43    90    1
    88    44    47   ar
    89    44    91    1
    90    45    48   ar
    91    46    49   ar
    92    46    50   ar
    93    47    48   ar
    94    47    92    1
    95    49    51   ar
    96    49    93    1
    97    50    52   ar
    98    50    94    1
    99    51    53   ar
   100    52    53   ar
   101    52    96    1
   102    54    97    1
   103    54    98    1
   104    54    99    1
   105    55   101    1
   106    55   102    1
   107    55   103    1
