@<TRIPOS>MOLECULE
IMPHY008993
 35 38 0 0 0
SMALL
GASTEIGER

@<TRIPOS>ATOM
      1 O           4.3107    0.6598    0.0000 O.2     1  UNL1       -0.4523
      2 O           3.3926   -1.8887    0.0000 O.3     1  UNL1       -0.4558
      3 O           2.5405   -0.3371    0.0000 O.3     1  UNL1       -0.3519
      4 O           6.9088   -0.8402    0.0000 O.2     1  UNL1       -0.2863
      5 O           7.8129    0.6566    0.0000 O.3     1  UNL1       -0.5055
      6 O           6.0548    3.7290    0.0000 O.3     1  UNL1       -0.5063
      7 C           5.1767   -0.8402    0.0000 C.ar    1  UNL1        0.0773
      8 C           4.3107   -0.3402    0.0000 C.ar    1  UNL1        0.1848
      9 C           6.0427    0.6598    0.0000 C.ar    1  UNL1        0.1063
     10 C           5.1928   -1.8817    0.0000 C.ar    1  UNL1        0.0310
     11 C           3.4007   -0.8471    0.0000 C.3     1  UNL1        0.2592
     12 C           6.0427   -0.3402    0.0000 C.ar    1  UNL1        0.2043
     13 C           5.1767    1.1598    0.0000 C.ar    1  UNL1        0.1461
     14 C           4.2947   -2.4095    0.0000 C.ar    1  UNL1        0.1323
     15 C           6.9527    1.1666    0.0000 C.ar    1  UNL1        0.1376
     16 C           6.9608    2.2082    0.0000 C.ar    1  UNL1        0.0332
     17 C           5.1606    2.2013    0.0000 C.ar    1  UNL1        0.0234
     18 C           6.1447   -2.4024    0.0000 C.ar    1  UNL1       -0.0503
     19 C           6.0587    2.7290    0.0000 C.ar    1  UNL1        0.1267
     20 C           4.2864   -3.4944    0.0000 C.ar    1  UNL1       -0.0192
     21 C           6.1614   -3.4872    0.0000 C.ar    1  UNL1       -0.0610
     22 C           7.8287    2.7049    0.0000 C.3     1  UNL1       -0.0327
     23 C           5.2260   -4.0370    0.0000 C.ar    1  UNL1       -0.0583
     24 H           2.8608   -1.1519    0.0000 H       1  UNL1        0.1143
     25 H           4.6202    2.5051    0.0000 H       1  UNL1        0.0691
     26 H           6.6756   -2.0821    0.0000 H       1  UNL1        0.0625
     27 H           3.7482   -3.8024    0.0000 H       1  UNL1        0.0654
     28 H           6.7019   -3.7910    0.0000 H       1  UNL1        0.0618
     29 H           8.1366    2.1668    0.0000 H       1  UNL1        0.0280
     30 H           8.3668    3.0128    0.0000 H       1  UNL1        0.0280
     31 H           7.5208    3.2430    0.0000 H       1  UNL1        0.0280
     32 H           5.2284   -4.6570    0.0000 H       1  UNL1        0.0619
     33 H           2.0000   -0.6409    0.0000 H       1  UNL1        0.2140
     34 H           8.3534    0.9604    0.0000 H       1  UNL1        0.2922
     35 H           5.5167    4.0370    0.0000 H       1  UNL1        0.2921
@<TRIPOS>BOND
     1     1     8   ar
     2     1    13   ar
     3     2    11    1
     4     2    14    1
     5     3    11    1
     6     3    33    1
     7     4    12    2
     8     5    15    1
     9     5    34    1
    10     6    19    1
    11     6    35    1
    12     7     8   ar
    13     7    10    1
    14     7    12   ar
    15     8    11    1
    16     9    12   ar
    17     9    13   ar
    18     9    15   ar
    19    10    14   ar
    20    10    18   ar
    21    11    24    1
    22    13    17   ar
    23    14    20   ar
    24    15    16   ar
    25    16    19   ar
    26    16    22    1
    27    17    19   ar
    28    17    25    1
    29    18    21   ar
    30    18    26    1
    31    20    23   ar
    32    20    27    1
    33    21    23   ar
    34    21    28    1
    35    22    29    1
    36    22    30    1
    37    22    31    1
    38    23    32    1
