@<TRIPOS>MOLECULE
IMPHY006485
 34 34 0 0 0
SMALL
GASTEIGER

@<TRIPOS>ATOM
      1 O           3.8660    2.5000    0.0000 O.2     1  UNL1       -0.2930
      2 C           3.0000   -1.0000    0.0000 C.3     1  UNL1       -0.0099
      3 C           3.0000   -2.0000    0.0000 C.3     1  UNL1       -0.0436
      4 C           3.8660   -2.5000    0.0000 C.3     1  UNL1       -0.0486
      5 C           3.8660   -0.5000    0.0000 C.2     1  UNL1       -0.0426
      6 C           4.7320   -2.0000    0.0000 C.3     1  UNL1       -0.0314
      7 C           4.7320   -1.0000    0.0000 C.2     1  UNL1       -0.0689
      8 C           2.0000   -1.0000    0.0000 C.3     1  UNL1       -0.0558
      9 C           2.5000   -0.1340    0.0000 C.3     1  UNL1       -0.0558
     10 C           3.8660    0.5000    0.0000 C.2     1  UNL1       -0.0548
     11 C           5.5981   -0.5000    0.0000 C.3     1  UNL1       -0.0432
     12 C           4.7320    1.0000    0.0000 C.2     1  UNL1       -0.0192
     13 C           4.7320    2.0000    0.0000 C.2     1  UNL1        0.1530
     14 C           5.5981    2.5000    0.0000 C.3     1  UNL1       -0.0020
     15 H           2.3894   -1.8923    0.0000 H       1  UNL1        0.0274
     16 H           2.7880   -2.5826    0.0000 H       1  UNL1        0.0274
     17 H           3.4675   -2.9750    0.0000 H       1  UNL1        0.0269
     18 H           4.2646   -2.9750    0.0000 H       1  UNL1        0.0269
     19 H           4.9441   -2.5826    0.0000 H       1  UNL1        0.0310
     20 H           5.3426   -1.8923    0.0000 H       1  UNL1        0.0310
     21 H           3.0369    0.1760    0.0000 H       1  UNL1        0.0238
     22 H           2.1900    0.4030    0.0000 H       1  UNL1        0.0238
     23 H           1.9631   -0.4440    0.0000 H       1  UNL1        0.0238
     24 H           2.0000   -0.3800    0.0000 H       1  UNL1        0.0238
     25 H           1.3800   -1.0000    0.0000 H       1  UNL1        0.0238
     26 H           2.0000   -1.6200    0.0000 H       1  UNL1        0.0238
     27 H           3.3291    0.8100    0.0000 H       1  UNL1        0.0621
     28 H           5.9081   -1.0369    0.0000 H       1  UNL1        0.0275
     29 H           6.1350   -0.1900    0.0000 H       1  UNL1        0.0275
     30 H           5.2881    0.0369    0.0000 H       1  UNL1        0.0275
     31 H           5.2690    0.6900    0.0000 H       1  UNL1        0.0652
     32 H           5.9081    1.9631    0.0000 H       1  UNL1        0.0309
     33 H           6.1350    2.8100    0.0000 H       1  UNL1        0.0309
     34 H           5.2881    3.0369    0.0000 H       1  UNL1        0.0309
@<TRIPOS>BOND
     1     1    13    2
     2     2     3    1
     3     2     5    1
     4     2     8    1
     5     2     9    1
     6     3     4    1
     7     3    15    1
     8     3    16    1
     9     4     6    1
    10     4    17    1
    11     4    18    1
    12     5     7    2
    13     5    10    1
    14     6     7    1
    15     6    19    1
    16     6    20    1
    17     7    11    1
    18     8    24    1
    19     8    25    1
    20     8    26    1
    21     9    21    1
    22     9    22    1
    23     9    23    1
    24    10    12    2
    25    10    27    1
    26    11    28    1
    27    11    29    1
    28    11    30    1
    29    12    13    1
    30    12    31    1
    31    13    14    1
    32    14    32    1
    33    14    33    1
    34    14    34    1
