@<TRIPOS>MOLECULE
IMPHY000688
 21 22 0 0 0
SMALL
GASTEIGER

@<TRIPOS>ATOM
      1 O           6.3580   -1.0347    0.0000 O.2     1  UNL1       -0.4220
      2 O           2.8660   -1.0000    0.0000 O.3     1  UNL1       -0.4950
      3 O           8.1282   -1.0241    0.0000 O.2     1  UNL1       -0.2452
      4 C           5.4641    0.5000    0.0000 C.ar    1  UNL1        0.0178
      5 C           5.4641   -0.5000    0.0000 C.ar    1  UNL1        0.1425
      6 C           4.5981   -1.0000    0.0000 C.ar    1  UNL1        0.0231
      7 C           4.5981    1.0000    0.0000 C.ar    1  UNL1       -0.0476
      8 C           3.7320   -0.5000    0.0000 C.ar    1  UNL1        0.1236
      9 C           3.7320    0.5000    0.0000 C.ar    1  UNL1       -0.0192
     10 C           6.3580    1.0347    0.0000 C.ar    1  UNL1       -0.0443
     11 C           7.2641    0.5208    0.0000 C.ar    1  UNL1        0.0236
     12 C           7.2641   -0.5208    0.0000 C.ar    1  UNL1        0.3372
     13 C           2.0000   -0.5000    0.0000 C.3     1  UNL1        0.0788
     14 H           4.5981   -1.6200    0.0000 H       1  UNL1        0.0691
     15 H           4.5981    1.6200    0.0000 H       1  UNL1        0.0626
     16 H           3.1951    0.8100    0.0000 H       1  UNL1        0.0654
     17 H           6.3509    1.6546    0.0000 H       1  UNL1        0.0627
     18 H           7.7998    0.8329    0.0000 H       1  UNL1        0.0689
     19 H           2.3100    0.0369    0.0000 H       1  UNL1        0.0660
     20 H           1.4631   -0.1900    0.0000 H       1  UNL1        0.0660
     21 H           1.6900   -1.0369    0.0000 H       1  UNL1        0.0660
@<TRIPOS>BOND
     1     1     5   ar
     2     1    12   ar
     3     2     8    1
     4     2    13    1
     5     3    12    2
     6     4     5   ar
     7     4     7   ar
     8     4    10   ar
     9     5     6   ar
    10     6     8   ar
    11     6    14    1
    12     7     9   ar
    13     7    15    1
    14     8     9   ar
    15     9    16    1
    16    10    11   ar
    17    10    17    1
    18    11    12   ar
    19    11    18    1
    20    13    19    1
    21    13    20    1
    22    13    21    1
