@<TRIPOS>MOLECULE
IMPHY016146
 21 22 0 0 0
SMALL
GASTEIGER

@<TRIPOS>ATOM
      1 C           3.7320   -0.0173    0.0000 C.ar    1  UNL1       -0.0150
      2 C           3.7320    0.9827    0.0000 C.ar    1  UNL1       -0.0176
      3 C           2.8660   -0.5173    0.0000 C.ar    1  UNL1       -0.0427
      4 C           4.6260   -0.5520    0.0000 C.ar    1  UNL1       -0.0538
      5 C           2.8660    1.4827    0.0000 C.ar    1  UNL1       -0.0540
      6 C           2.0000   -0.0173    0.0000 C.ar    1  UNL1       -0.0582
      7 C           4.6260    1.5173    0.0000 C.ar    1  UNL1       -0.0540
      8 C           2.0000    0.9827    0.0000 C.ar    1  UNL1       -0.0609
      9 C           2.8660   -1.5173    0.0000 C.3     1  UNL1       -0.0391
     10 C           5.5321   -0.0381    0.0000 C.ar    1  UNL1       -0.0612
     11 C           5.5321    1.0035    0.0000 C.ar    1  UNL1       -0.0612
     12 H           4.6188   -1.1720    0.0000 H       1  UNL1        0.0624
     13 H           2.8660    2.1027    0.0000 H       1  UNL1        0.0624
     14 H           1.4631   -0.3273    0.0000 H       1  UNL1        0.0620
     15 H           4.6188    2.1373    0.0000 H       1  UNL1        0.0624
     16 H           1.4631    1.2927    0.0000 H       1  UNL1        0.0618
     17 H           2.2460   -1.5173    0.0000 H       1  UNL1        0.0278
     18 H           2.8660   -2.1373    0.0000 H       1  UNL1        0.0278
     19 H           3.4860   -1.5173    0.0000 H       1  UNL1        0.0278
     20 H           6.0678   -0.3502    0.0000 H       1  UNL1        0.0618
     21 H           6.0678    1.3156    0.0000 H       1  UNL1        0.0618
@<TRIPOS>BOND
     1     1     2   ar
     2     1     3   ar
     3     1     4   ar
     4     2     5   ar
     5     2     7   ar
     6     3     6   ar
     7     3     9    1
     8     4    10   ar
     9     4    12    1
    10     5     8   ar
    11     5    13    1
    12     6     8   ar
    13     6    14    1
    14     7    11   ar
    15     7    15    1
    16     8    16    1
    17     9    17    1
    18     9    18    1
    19     9    19    1
    20    10    11   ar
    21    10    20    1
    22    11    21    1
