@<TRIPOS>MOLECULE
IMPHY017381
 32 31 0 0 0
SMALL
GASTEIGER

@<TRIPOS>ATOM
      1 O           2.5369   -0.0000    0.0000 O.3     1  UNL1       -0.3880
      2 C           6.8671    0.5000    0.0000 C.3     1  UNL1       -0.0216
      3 C           6.0010    0.0000    0.0000 C.2     1  UNL1       -0.0463
      4 C           6.0010   -1.0000    0.0000 C.2     1  UNL1       -0.0723
      5 C           7.7331    0.0000    0.0000 C.3     1  UNL1       -0.0587
      6 C           6.8671    1.5000    0.0000 C.3     1  UNL1       -0.0587
      7 C           5.1350    0.5000    0.0000 C.2     1  UNL1       -0.0599
      8 C           4.2690   -0.0000    0.0000 C.2     1  UNL1       -0.0559
      9 C           6.8671   -1.5000    0.0000 C.3     1  UNL1       -0.0435
     10 C           5.1350   -1.5000    0.0000 C.3     1  UNL1       -0.0435
     11 C           3.4030    0.5000    0.0000 C.3     1  UNL1        0.0708
     12 C           3.4030    1.5000    0.0000 C.3     1  UNL1       -0.0353
     13 H           6.3301    0.8100    0.0000 H       1  UNL1        0.0343
     14 H           7.4231   -0.5369    0.0000 H       1  UNL1        0.0235
     15 H           8.2700   -0.3100    0.0000 H       1  UNL1        0.0235
     16 H           8.0431    0.5369    0.0000 H       1  UNL1        0.0235
     17 H           7.4871    1.5000    0.0000 H       1  UNL1        0.0235
     18 H           6.8671    2.1200    0.0000 H       1  UNL1        0.0235
     19 H           6.2471    1.5000    0.0000 H       1  UNL1        0.0235
     20 H           5.1350    1.1200    0.0000 H       1  UNL1        0.0618
     21 H           4.2690   -0.6200    0.0000 H       1  UNL1        0.0597
     22 H           6.5571   -2.0369    0.0000 H       1  UNL1        0.0274
     23 H           7.4040   -1.8100    0.0000 H       1  UNL1        0.0274
     24 H           7.1771   -0.9631    0.0000 H       1  UNL1        0.0274
     25 H           4.8250   -0.9631    0.0000 H       1  UNL1        0.0274
     26 H           4.5981   -1.8100    0.0000 H       1  UNL1        0.0274
     27 H           5.4450   -2.0369    0.0000 H       1  UNL1        0.0274
     28 H           3.4030   -0.1200    0.0000 H       1  UNL1        0.0635
     29 H           4.0230    1.5000    0.0000 H       1  UNL1        0.0258
     30 H           3.4030    2.1200    0.0000 H       1  UNL1        0.0258
     31 H           2.7830    1.5000    0.0000 H       1  UNL1        0.0258
     32 H           2.0000    0.3100    0.0000 H       1  UNL1        0.2102
@<TRIPOS>BOND
     1     1    11    1
     2     1    32    1
     3     2     3    1
     4     2     5    1
     5     2     6    1
     6     2    13    1
     7     3     4    2
     8     3     7    1
     9     4     9    1
    10     4    10    1
    11     5    14    1
    12     5    15    1
    13     5    16    1
    14     6    17    1
    15     6    18    1
    16     6    19    1
    17     7     8    2
    18     7    20    1
    19     8    11    1
    20     8    21    1
    21     9    22    1
    22     9    23    1
    23     9    24    1
    24    10    25    1
    25    10    26    1
    26    10    27    1
    27    11    12    1
    28    11    28    1
    29    12    29    1
    30    12    30    1
    31    12    31    1
