@<TRIPOS>MOLECULE
IMPHY000111
 104 106 0 0 0
SMALL
GASTEIGER

@<TRIPOS>ATOM
      1 O          12.2311    2.1161    0.0000 O.3     1  UNL1       -0.3683
      2 O          14.3002    1.4438    0.0000 O.3     1  UNL1       -0.3683
      3 O          10.2631    1.4167    0.0000 O.3     1  UNL1       -0.3892
      4 O          15.4812   -0.2788    0.0000 O.3     1  UNL1       -0.3892
      5 O           6.8747    2.1369    0.0000 O.3     1  UNL1       -0.3918
      6 O          26.3767   -3.1196    0.0000 O.3     1  UNL1       -0.4542
      7 O          25.2552   -4.5044    0.0000 O.2     1  UNL1       -0.2453
      8 C          13.0401    2.7039    0.0000 C.3     1  UNL1        0.0853
      9 C          13.9912    2.3948    0.0000 C.3     1  UNL1        0.0853
     10 C          12.7311    3.6549    0.0000 C.3     1  UNL1       -0.0217
     11 C          14.8002    2.9826    0.0000 C.3     1  UNL1       -0.0217
     12 C          11.4221    2.7039    0.0000 C.3     1  UNL1        0.0850
     13 C          15.3002    1.4438    0.0000 C.3     1  UNL1        0.0850
     14 C          11.7311    3.6549    0.0000 C.3     1  UNL1       -0.0217
     15 C          15.6092    2.3948    0.0000 C.3     1  UNL1       -0.0217
     16 C          10.4710    2.3948    0.0000 C.3     1  UNL1        0.0813
     17 C          15.8880    0.6348    0.0000 C.3     1  UNL1        0.0813
     18 C           9.7279    3.0640    0.0000 C.3     1  UNL1       -0.0243
     19 C          16.8825    0.7393    0.0000 C.3     1  UNL1       -0.0244
     20 C           8.7768    2.7550    0.0000 C.3     1  UNL1       -0.0483
     21 C          17.4703   -0.0697    0.0000 C.3     1  UNL1       -0.0506
     22 C           8.0337    3.4241    0.0000 C.3     1  UNL1       -0.0268
     23 C          18.4648    0.0348    0.0000 C.3     1  UNL1       -0.0530
     24 C           7.0826    3.1151    0.0000 C.3     1  UNL1        0.0553
     25 C          19.0526   -0.7742    0.0000 C.3     1  UNL1       -0.0531
     26 C           6.3395    3.7842    0.0000 C.3     1  UNL1       -0.0269
     27 C          20.0471   -0.6697    0.0000 C.3     1  UNL1       -0.0531
     28 C           5.3884    3.4752    0.0000 C.3     1  UNL1       -0.0507
     29 C          20.6349   -1.4787    0.0000 C.3     1  UNL1       -0.0531
     30 C          21.6294   -1.3742    0.0000 C.3     1  UNL1       -0.0530
     31 C           4.6453    4.1443    0.0000 C.3     1  UNL1       -0.0530
     32 C          22.2172   -2.1832    0.0000 C.3     1  UNL1       -0.0528
     33 C           3.6942    3.8353    0.0000 C.3     1  UNL1       -0.0533
     34 C          23.2117   -2.0786    0.0000 C.3     1  UNL1       -0.0488
     35 C           2.9511    4.5044    0.0000 C.3     1  UNL1       -0.0559
     36 C          23.7995   -2.8877    0.0000 C.3     1  UNL1       -0.0211
     37 C          24.7940   -2.7831    0.0000 C.2     1  UNL1        0.0361
     38 C           2.0000    4.1954    0.0000 C.3     1  UNL1       -0.0653
     39 C          25.2940   -1.9171    0.0000 C.2     1  UNL1       -0.0343
     40 C          26.2722   -2.1250    0.0000 C.3     1  UNL1        0.1195
     41 C          25.4631   -3.5263    0.0000 C.2     1  UNL1        0.3355
     42 C          27.0153   -1.4559    0.0000 C.3     1  UNL1       -0.0240
     43 H          13.1371    2.0915    0.0000 H       1  UNL1        0.0622
     44 H          13.8942    3.0072    0.0000 H       1  UNL1        0.0622
     45 H          13.3375    3.7838    0.0000 H       1  UNL1        0.0292
     46 H          12.6663    4.2715    0.0000 H       1  UNL1        0.0292
     47 H          15.2150    3.4434    0.0000 H       1  UNL1        0.0292
     48 H          14.3853    3.4434    0.0000 H       1  UNL1        0.0292
     49 H          11.3251    2.0915    0.0000 H       1  UNL1        0.0622
     50 H          15.0187    0.8914    0.0000 H       1  UNL1        0.0622
     51 H          11.7959    4.2715    0.0000 H       1  UNL1        0.0292
     52 H          11.1246    3.7838    0.0000 H       1  UNL1        0.0292
     53 H          16.1756    2.1427    0.0000 H       1  UNL1        0.0292
     54 H          15.9192    2.9318    0.0000 H       1  UNL1        0.0292
     55 H           9.8814    2.2033    0.0000 H       1  UNL1        0.0619
     56 H          16.2524    0.1332    0.0000 H       1  UNL1        0.0619
     57 H          10.2164    3.4457    0.0000 H       1  UNL1        0.0291
     58 H           9.4368    3.6114    0.0000 H       1  UNL1        0.0291
     59 H          17.4397    1.0111    0.0000 H       1  UNL1        0.0291
     60 H          16.7116    1.3353    0.0000 H       1  UNL1        0.0291
     61 H           8.2882    2.3732    0.0000 H       1  UNL1        0.0267
     62 H           9.0679    2.2075    0.0000 H       1  UNL1        0.0267
     63 H          16.9130   -0.3415    0.0000 H       1  UNL1        0.0266
     64 H          17.6412   -0.6657    0.0000 H       1  UNL1        0.0266
     65 H           9.6734    1.2251    0.0000 H       1  UNL1        0.2099
     66 H          15.8456   -0.7804    0.0000 H       1  UNL1        0.2099
     67 H           8.5222    3.8058    0.0000 H       1  UNL1        0.0290
     68 H           7.7426    3.9715    0.0000 H       1  UNL1        0.0290
     69 H          19.0220    0.3066    0.0000 H       1  UNL1        0.0265
     70 H          18.2939    0.6308    0.0000 H       1  UNL1        0.0265
     71 H           6.4930    2.9235    0.0000 H       1  UNL1        0.0593
     72 H          18.4953   -1.0460    0.0000 H       1  UNL1        0.0265
     73 H          19.2235   -1.3702    0.0000 H       1  UNL1        0.0265
     74 H           6.8280    4.1659    0.0000 H       1  UNL1        0.0290
     75 H           6.0484    4.3316    0.0000 H       1  UNL1        0.0290
     76 H          20.6043   -0.3979    0.0000 H       1  UNL1        0.0265
     77 H          19.8762   -0.0737    0.0000 H       1  UNL1        0.0265
     78 H           4.8998    3.0935    0.0000 H       1  UNL1        0.0266
     79 H           5.6795    2.9278    0.0000 H       1  UNL1        0.0266
     80 H          20.0776   -1.7505    0.0000 H       1  UNL1        0.0265
     81 H          20.8058   -2.0747    0.0000 H       1  UNL1        0.0265
     82 H           6.2850    1.9453    0.0000 H       1  UNL1        0.2098
     83 H          22.1867   -1.1024    0.0000 H       1  UNL1        0.0265
     84 H          21.4585   -0.7782    0.0000 H       1  UNL1        0.0265
     85 H           5.1338    4.5260    0.0000 H       1  UNL1        0.0265
     86 H           4.3542    4.6918    0.0000 H       1  UNL1        0.0265
     87 H          21.6599   -2.4550    0.0000 H       1  UNL1        0.0265
     88 H          22.3881   -2.7792    0.0000 H       1  UNL1        0.0265
     89 H           3.2056    3.4536    0.0000 H       1  UNL1        0.0265
     90 H           3.9853    3.2879    0.0000 H       1  UNL1        0.0265
     91 H          23.7690   -1.8069    0.0000 H       1  UNL1        0.0268
     92 H          23.0408   -1.4827    0.0000 H       1  UNL1        0.0268
     93 H           3.4396    4.8861    0.0000 H       1  UNL1        0.0263
     94 H           2.6600    5.0519    0.0000 H       1  UNL1        0.0263
     95 H          23.2422   -3.1595    0.0000 H       1  UNL1        0.0315
     96 H          23.9704   -3.4836    0.0000 H       1  UNL1        0.0315
     97 H           1.8084    4.7851    0.0000 H       1  UNL1        0.0230
     98 H           1.4103    4.0038    0.0000 H       1  UNL1        0.0230
     99 H           2.1916    3.6058    0.0000 H       1  UNL1        0.0230
    100 H          25.0418   -1.3507    0.0000 H       1  UNL1        0.0613
    101 H          26.8510   -2.3472    0.0000 H       1  UNL1        0.0777
    102 H          27.4302   -1.9166    0.0000 H       1  UNL1        0.0268
    103 H          27.4761   -1.0410    0.0000 H       1  UNL1        0.0268
    104 H          26.6004   -0.9951    0.0000 H       1  UNL1        0.0268
@<TRIPOS>BOND
     1     1     8    1
     2     1    12    1
     3     2     9    1
     4     2    13    1
     5     3    16    1
     6     3    65    1
     7     4    17    1
     8     4    66    1
     9     5    24    1
    10     5    82    1
    11     6    40    1
    12     6    41    1
    13     7    41    2
    14     8     9    1
    15     8    10    1
    16     8    43    1
    17     9    11    1
    18     9    44    1
    19    10    14    1
    20    10    45    1
    21    10    46    1
    22    11    15    1
    23    11    47    1
    24    11    48    1
    25    12    14    1
    26    12    16    1
    27    12    49    1
    28    13    15    1
    29    13    17    1
    30    13    50    1
    31    14    51    1
    32    14    52    1
    33    15    53    1
    34    15    54    1
    35    16    18    1
    36    16    55    1
    37    17    19    1
    38    17    56    1
    39    18    20    1
    40    18    57    1
    41    18    58    1
    42    19    21    1
    43    19    59    1
    44    19    60    1
    45    20    22    1
    46    20    61    1
    47    20    62    1
    48    21    23    1
    49    21    63    1
    50    21    64    1
    51    22    24    1
    52    22    67    1
    53    22    68    1
    54    23    25    1
    55    23    69    1
    56    23    70    1
    57    24    26    1
    58    24    71    1
    59    25    27    1
    60    25    72    1
    61    25    73    1
    62    26    28    1
    63    26    74    1
    64    26    75    1
    65    27    29    1
    66    27    76    1
    67    27    77    1
    68    28    31    1
    69    28    78    1
    70    28    79    1
    71    29    30    1
    72    29    80    1
    73    29    81    1
    74    30    32    1
    75    30    83    1
    76    30    84    1
    77    31    33    1
    78    31    85    1
    79    31    86    1
    80    32    34    1
    81    32    87    1
    82    32    88    1
    83    33    35    1
    84    33    89    1
    85    33    90    1
    86    34    36    1
    87    34    91    1
    88    34    92    1
    89    35    38    1
    90    35    93    1
    91    35    94    1
    92    36    37    1
    93    36    95    1
    94    36    96    1
    95    37    39    2
    96    37    41    1
    97    38    97    1
    98    38    98    1
    99    38    99    1
   100    39    40    1
   101    39   100    1
   102    40    42    1
   103    40   101    1
   104    42   102    1
   105    42   103    1
   106    42   104    1
