@<TRIPOS>MOLECULE
IMPHY009007
 53 55 0 0 0
SMALL
GASTEIGER

@<TRIPOS>ATOM
      1 O           2.3038   -2.8656    0.0000 O.3     1  UNL1       -0.4802
      2 O           3.8137   -3.7142    0.0000 O.2     1  UNL1       -0.2504
      3 O           6.4318    2.6217    0.0000 O.3     1  UNL1       -0.5065
      4 O           9.0774    3.0942    0.0000 O.3     1  UNL1       -0.3943
      5 O           9.9377    1.5909    0.0000 O.3     1  UNL1       -0.3943
      6 C           4.6876   -1.4476    0.0000 C.3     1  UNL1       -0.0158
      7 C           4.6876   -0.4476    0.0000 C.3     1  UNL1       -0.0028
      8 C           3.7937   -1.9822    0.0000 C.3     1  UNL1        0.0684
      9 C           3.7937    0.0871    0.0000 C.3     1  UNL1       -0.0433
     10 C           5.5536   -1.9476    0.0000 C.3     1  UNL1       -0.0444
     11 C           2.8876   -1.4684    0.0000 C.3     1  UNL1       -0.0372
     12 C           2.8876   -0.4268    0.0000 C.3     1  UNL1       -0.0512
     13 C           5.5536    0.0524    0.0000 C.ar    1  UNL1       -0.0345
     14 C           6.4196   -1.4476    0.0000 C.3     1  UNL1       -0.0271
     15 C           4.6876    0.5524    0.0000 C.3     1  UNL1       -0.0552
     16 C           6.4196   -0.4476    0.0000 C.ar    1  UNL1       -0.0431
     17 C           4.3036   -2.8424    0.0000 C.3     1  UNL1       -0.0491
     18 C           3.3037   -2.8540    0.0000 C.2     1  UNL1        0.3110
     19 C           5.5376    1.0939    0.0000 C.ar    1  UNL1       -0.0159
     20 C           7.3296    0.0593    0.0000 C.ar    1  UNL1       -0.0512
     21 C           7.3377    1.1009    0.0000 C.ar    1  UNL1        0.0017
     22 C           6.4356    1.6217    0.0000 C.ar    1  UNL1        0.1207
     23 C           8.2056    1.5975    0.0000 C.3     1  UNL1        0.0339
     24 C           9.0697    1.0942    0.0000 C.3     1  UNL1        0.0532
     25 C           8.2095    2.5975    0.0000 C.3     1  UNL1        0.0532
     26 H           4.6941   -2.2976    0.0000 H       1  UNL1        0.0320
     27 H           4.1982    0.5569    0.0000 H       1  UNL1        0.0274
     28 H           3.4000    0.5661    0.0000 H       1  UNL1        0.0274
     29 H           5.1551   -2.4225    0.0000 H       1  UNL1        0.0272
     30 H           5.9521   -2.4225    0.0000 H       1  UNL1        0.0272
     31 H           2.2767   -1.3623    0.0000 H       1  UNL1        0.0276
     32 H           2.6785   -2.0521    0.0000 H       1  UNL1        0.0276
     33 H           2.6785    0.1569    0.0000 H       1  UNL1        0.0266
     34 H           2.2767   -0.5329    0.0000 H       1  UNL1        0.0266
     35 H           6.6317   -2.0302    0.0000 H       1  UNL1        0.0313
     36 H           7.0302   -1.3399    0.0000 H       1  UNL1        0.0313
     37 H           5.3076    0.5524    0.0000 H       1  UNL1        0.0238
     38 H           4.6876    1.1724    0.0000 H       1  UNL1        0.0238
     39 H           4.0676    0.5524    0.0000 H       1  UNL1        0.0238
     40 H           3.7703   -3.1586    0.0000 H       1  UNL1        0.0240
     41 H           4.6198   -3.3757    0.0000 H       1  UNL1        0.0240
     42 H           4.8370   -2.5262    0.0000 H       1  UNL1        0.0240
     43 H           4.9971    1.3977    0.0000 H       1  UNL1        0.0657
     44 H           7.8630   -0.2569    0.0000 H       1  UNL1        0.0624
     45 H           8.7438    1.9055    0.0000 H       1  UNL1        0.0395
     46 H           2.0000   -3.4060    0.0000 H       1  UNL1        0.2951
     47 H           8.6694    0.6208    0.0000 H       1  UNL1        0.0564
     48 H           9.4664    0.6177    0.0000 H       1  UNL1        0.0564
     49 H           7.9997    3.1809    0.0000 H       1  UNL1        0.0564
     50 H           7.5985    2.4922    0.0000 H       1  UNL1        0.0564
     51 H           5.8936    2.9296    0.0000 H       1  UNL1        0.2921
     52 H          10.4734    1.2788    0.0000 H       1  UNL1        0.2094
     53 H           9.0798    3.7142    0.0000 H       1  UNL1        0.2094
@<TRIPOS>BOND
     1     1    18    1
     2     1    46    1
     3     2    18    2
     4     3    22    1
     5     3    51    1
     6     4    25    1
     7     4    53    1
     8     5    24    1
     9     5    52    1
    10     6     7    1
    11     6     8    1
    12     6    10    1
    13     6    26    1
    14     7     9    1
    15     7    13    1
    16     7    15    1
    17     8    11    1
    18     8    17    1
    19     8    18    1
    20     9    12    1
    21     9    27    1
    22     9    28    1
    23    10    14    1
    24    10    29    1
    25    10    30    1
    26    11    12    1
    27    11    31    1
    28    11    32    1
    29    12    33    1
    30    12    34    1
    31    13    16   ar
    32    13    19   ar
    33    14    16    1
    34    14    35    1
    35    14    36    1
    36    15    37    1
    37    15    38    1
    38    15    39    1
    39    16    20   ar
    40    17    40    1
    41    17    41    1
    42    17    42    1
    43    19    22   ar
    44    19    43    1
    45    20    21   ar
    46    20    44    1
    47    21    22   ar
    48    21    23    1
    49    23    24    1
    50    23    25    1
    51    23    45    1
    52    24    47    1
    53    24    48    1
    54    25    49    1
    55    25    50    1
