@<TRIPOS>MOLECULE
IMPHY017538
 63 63 0 0 0
SMALL
GASTEIGER

@<TRIPOS>ATOM
      1 O          11.5263   -1.2500    0.0000 O.3     1  UNL1       -0.4611
      2 O           8.0622   -3.2500    0.0000 O.3     1  UNL1       -0.4611
      3 O           9.7942   -1.2500    0.0000 O.2     1  UNL1       -0.2449
      4 O           8.9282   -1.7500    0.0000 O.2     1  UNL1       -0.2449
      5 C          13.2583    1.7500    0.0000 C.3     1  UNL1       -0.0530
      6 C          13.2583    2.7500    0.0000 C.3     1  UNL1       -0.0531
      7 C          12.3923    1.2500    0.0000 C.3     1  UNL1       -0.0500
      8 C          14.1244    3.2500    0.0000 C.3     1  UNL1       -0.0533
      9 C          12.3923    0.2500    0.0000 C.3     1  UNL1       -0.0185
     10 C           4.5981   -3.2500    0.0000 C.3     1  UNL1       -0.0530
     11 C           5.4641   -2.7500    0.0000 C.3     1  UNL1       -0.0500
     12 C           3.7320   -2.7500    0.0000 C.3     1  UNL1       -0.0533
     13 C          14.1244    4.2500    0.0000 C.3     1  UNL1       -0.0559
     14 C           6.3301   -3.2500    0.0000 C.3     1  UNL1       -0.0185
     15 C           2.8660   -3.2500    0.0000 C.3     1  UNL1       -0.0559
     16 C          11.5263   -0.2500    0.0000 C.3     1  UNL1        0.0928
     17 C           7.1962   -2.7500    0.0000 C.3     1  UNL1        0.0928
     18 C          14.9904    4.7500    0.0000 C.3     1  UNL1       -0.0653
     19 C           2.0000   -2.7500    0.0000 C.3     1  UNL1       -0.0653
     20 C          10.6603   -2.7500    0.0000 C.ar    1  UNL1        0.0729
     21 C          10.6603   -1.7500    0.0000 C.2     1  UNL1        0.3400
     22 C           9.7942   -3.2500    0.0000 C.ar    1  UNL1        0.0729
     23 C           8.9282   -2.7500    0.0000 C.2     1  UNL1        0.3400
     24 C          11.5263   -3.2500    0.0000 C.ar    1  UNL1       -0.0470
     25 C           9.7942   -4.2500    0.0000 C.ar    1  UNL1       -0.0470
     26 C          11.5263   -4.2500    0.0000 C.ar    1  UNL1       -0.0609
     27 C          10.6603   -4.7500    0.0000 C.ar    1  UNL1       -0.0609
     28 H          13.4704    1.1674    0.0000 H       1  UNL1        0.0265
     29 H          13.8689    1.8577    0.0000 H       1  UNL1        0.0265
     30 H          13.0463    3.3326    0.0000 H       1  UNL1        0.0265
     31 H          12.6477    2.6423    0.0000 H       1  UNL1        0.0265
     32 H          12.1803    1.8326    0.0000 H       1  UNL1        0.0266
     33 H          11.7817    1.1423    0.0000 H       1  UNL1        0.0266
     34 H          14.3364    2.6674    0.0000 H       1  UNL1        0.0265
     35 H          14.7349    3.3577    0.0000 H       1  UNL1        0.0265
     36 H          12.6044   -0.3326    0.0000 H       1  UNL1        0.0298
     37 H          13.0029    0.3577    0.0000 H       1  UNL1        0.0298
     38 H           4.1996   -3.7250    0.0000 H       1  UNL1        0.0265
     39 H           4.9966   -3.7250    0.0000 H       1  UNL1        0.0265
     40 H           5.8626   -2.2750    0.0000 H       1  UNL1        0.0266
     41 H           5.0656   -2.2750    0.0000 H       1  UNL1        0.0266
     42 H           4.1306   -2.2750    0.0000 H       1  UNL1        0.0265
     43 H           3.3335   -2.2750    0.0000 H       1  UNL1        0.0265
     44 H          13.9123    4.8326    0.0000 H       1  UNL1        0.0263
     45 H          13.5138    4.1423    0.0000 H       1  UNL1        0.0263
     46 H           5.9316   -3.7250    0.0000 H       1  UNL1        0.0298
     47 H           6.7287   -3.7250    0.0000 H       1  UNL1        0.0298
     48 H           2.4675   -3.7250    0.0000 H       1  UNL1        0.0263
     49 H           3.2646   -3.7250    0.0000 H       1  UNL1        0.0263
     50 H          11.3142    0.3326    0.0000 H       1  UNL1        0.0697
     51 H          10.9157   -0.3577    0.0000 H       1  UNL1        0.0697
     52 H           7.5947   -2.2750    0.0000 H       1  UNL1        0.0697
     53 H           6.7976   -2.2750    0.0000 H       1  UNL1        0.0697
     54 H          15.3004    4.2131    0.0000 H       1  UNL1        0.0230
     55 H          15.5273    5.0600    0.0000 H       1  UNL1        0.0230
     56 H          14.6804    5.2869    0.0000 H       1  UNL1        0.0230
     57 H           2.3100   -2.2131    0.0000 H       1  UNL1        0.0230
     58 H           1.4631   -2.4400    0.0000 H       1  UNL1        0.0230
     59 H           1.6900   -3.2869    0.0000 H       1  UNL1        0.0230
     60 H          12.0632   -2.9400    0.0000 H       1  UNL1        0.0626
     61 H           9.2573   -4.5600    0.0000 H       1  UNL1        0.0626
     62 H          12.0632   -4.5600    0.0000 H       1  UNL1        0.0618
     63 H          10.6603   -5.3700    0.0000 H       1  UNL1        0.0618
@<TRIPOS>BOND
     1     1    16    1
     2     1    21    1
     3     2    17    1
     4     2    23    1
     5     3    21    2
     6     4    23    2
     7     5     6    1
     8     5     7    1
     9     5    28    1
    10     5    29    1
    11     6     8    1
    12     6    30    1
    13     6    31    1
    14     7     9    1
    15     7    32    1
    16     7    33    1
    17     8    13    1
    18     8    34    1
    19     8    35    1
    20     9    16    1
    21     9    36    1
    22     9    37    1
    23    10    11    1
    24    10    12    1
    25    10    38    1
    26    10    39    1
    27    11    14    1
    28    11    40    1
    29    11    41    1
    30    12    15    1
    31    12    42    1
    32    12    43    1
    33    13    18    1
    34    13    44    1
    35    13    45    1
    36    14    17    1
    37    14    46    1
    38    14    47    1
    39    15    19    1
    40    15    48    1
    41    15    49    1
    42    16    50    1
    43    16    51    1
    44    17    52    1
    45    17    53    1
    46    18    54    1
    47    18    55    1
    48    18    56    1
    49    19    57    1
    50    19    58    1
    51    19    59    1
    52    20    21    1
    53    20    22   ar
    54    20    24   ar
    55    22    23    1
    56    22    25   ar
    57    24    26   ar
    58    24    60    1
    59    25    27   ar
    60    25    61    1
    61    26    27   ar
    62    26    62    1
    63    27    63    1
