@<TRIPOS>MOLECULE
IMPHY017066
 12 12 0 0 0
SMALL
GASTEIGER

@<TRIPOS>ATOM
      1 O           2.8090   -1.1739    0.0000 O.2     1  UNL1       -0.4708
      2 C           3.3090    0.3649    0.0000 C.ar    1  UNL1       -0.0128
      3 C           2.3090    0.3649    0.0000 C.ar    1  UNL1       -0.0210
      4 C           3.8968    1.1739    0.0000 C.3     1  UNL1       -0.0367
      5 C           3.6180   -0.5861    0.0000 C.ar    1  UNL1        0.0946
      6 C           2.0000   -0.5861    0.0000 C.ar    1  UNL1        0.0919
      7 H           1.9446    0.8665    0.0000 H       1  UNL1        0.0652
      8 H           4.3984    0.8095    0.0000 H       1  UNL1        0.0278
      9 H           4.2612    1.6755    0.0000 H       1  UNL1        0.0278
     10 H           3.3952    1.5384    0.0000 H       1  UNL1        0.0278
     11 H           4.2077   -0.7777    0.0000 H       1  UNL1        0.1032
     12 H           1.4103   -0.7777    0.0000 H       1  UNL1        0.1029
@<TRIPOS>BOND
     1     1     5   ar
     2     1     6   ar
     3     2     3   ar
     4     2     4    1
     5     2     5   ar
     6     3     6   ar
     7     3     7    1
     8     4     8    1
     9     4     9    1
    10     4    10    1
    11     5    11    1
    12     6    12    1
