@<TRIPOS>MOLECULE
IMPHY007389
 22 20 0 0 0
SMALL
GASTEIGER

@<TRIPOS>ATOM
      1 S           4.2690    1.5000    0.0000 S.3     1  UNL1        0.0000
      2 S           6.0010   -1.5000    0.0000 S.3     1  UNL1        0.0000
      3 NA          5.1350    3.0000    0.0000 Na      2  UNL2        0.0000
      4 NA          6.8671   -3.0000    0.0000 Na      3  UNL3        0.0000
      5 O           2.5369    0.5000    0.0000 O.3     1  UNL1        0.0000
      6 O           2.5369   -1.5000    0.0000 O.3     1  UNL1        0.0000
      7 O           4.2690    2.5000    0.0000 O.co2   1  UNL1       -1.0000
      8 O           5.2690    1.5000    0.0000 O.2     1  UNL1        0.0000
      9 O           3.2690    1.5000    0.0000 O.2     1  UNL1        0.0000
     10 O           6.8671   -2.0000    0.0000 O.co2   1  UNL1       -1.0000
     11 O           5.5010   -2.3660    0.0000 O.2     1  UNL1        0.0000
     12 O           6.5010   -0.6340    0.0000 O.2     1  UNL1        0.0000
     13 C           4.2690    0.5000    0.0000 C.ar    1  UNL1        0.0000
     14 C           5.1350   -1.0000    0.0000 C.ar    1  UNL1        0.0000
     15 C           5.1350    0.0000    0.0000 C.ar    1  UNL1        0.0000
     16 C           3.4030    0.0000    0.0000 C.ar    1  UNL1        0.0000
     17 C           4.2690   -1.5000    0.0000 C.ar    1  UNL1        0.0000
     18 C           3.4030   -1.0000    0.0000 C.ar    1  UNL1        0.0000
     19 H           5.6720    0.3100    0.0000 H       1  UNL1        0.0000
     20 H           4.2690   -2.1200    0.0000 H       1  UNL1        0.0000
     21 H           2.0000    0.1900    0.0000 H       1  UNL1        0.0000
     22 H           2.5369   -2.1200    0.0000 H       1  UNL1        0.0000
@<TRIPOS>UNITY_ATOM_ATTR
3 1
charge 1
4 1
charge 1
7 1
charge -1
10 1
charge -1
@<TRIPOS>BOND
     1     1     7    1
     2     1     8    2
     3     1     9    2
     4     1    13    1
     5     2    10    1
     6     2    11    2
     7     2    12    2
     8     2    14    1
     9     5    16    1
    10     5    21    1
    11     6    18    1
    12     6    22    1
    13    13    15   ar
    14    13    16   ar
    15    14    15   ar
    16    14    17   ar
    17    15    19    1
    18    16    18   ar
    19    17    18   ar
    20    17    20    1
