@<TRIPOS>MOLECULE
IMPHY005059
 108 116 0 0 0
SMALL
GASTEIGER

@<TRIPOS>ATOM
      1 O           8.0777   -3.1797    0.0000 O.3     1  UNL1       -0.3759
      2 O           7.6619   -5.1360    0.0000 O.3     1  UNL1       -0.4659
      3 O           8.8208   -3.8489    0.0000 O.2     1  UNL1       -0.2475
      4 O           8.1801    1.3105    0.0000 O.3     1  UNL1       -0.4947
      5 O           6.5287   -0.0024    0.0000 O.3     1  UNL1       -0.4670
      6 O           5.2439    0.0425    0.0000 O.2     1  UNL1       -0.2494
      7 O           9.1930    5.2577    0.0000 O.3     1  UNL1       -0.3873
      8 N           4.3838   -2.9058    0.0000 N.3     1  UNL1       -0.2940
      9 N           7.4632   -1.9052    0.0000 N.pl3   1  UNL1       -0.3364
     10 N           6.8864    4.5293    0.0000 N.3     1  UNL1       -0.2990
     11 N           4.6681    1.3741    0.0000 N.ar    1  UNL1       -0.3565
     12 C           5.9235   -2.4054    0.0000 C.3     1  UNL1        0.0364
     13 C           5.2980   -3.1001    0.0000 C.3     1  UNL1        0.0314
     14 C           5.5869   -3.9890    0.0000 C.3     1  UNL1        0.0082
     15 C           6.8378   -2.5998    0.0000 C.3     1  UNL1        0.0710
     16 C           5.5384   -1.3698    0.0000 C.3     1  UNL1       -0.0272
     17 C           7.1266   -3.4888    0.0000 C.3     1  UNL1        0.1820
     18 C           6.5012   -4.1834    0.0000 C.3     1  UNL1       -0.0011
     19 C           6.2601   -0.8218    0.0000 C.ar    1  UNL1       -0.0164
     20 C           4.0949   -2.0168    0.0000 C.3     1  UNL1        0.0005
     21 C           5.8959   -4.9401    0.0000 C.3     1  UNL1       -0.0452
     22 C           4.9614   -4.6837    0.0000 C.2     1  UNL1       -0.0789
     23 C           7.1744   -1.0162    0.0000 C.ar    1  UNL1        0.0348
     24 C           3.7583   -3.6004    0.0000 C.3     1  UNL1        0.0174
     25 C           4.0472   -4.4893    0.0000 C.2     1  UNL1       -0.0734
     26 C           7.8698   -4.1579    0.0000 C.2     1  UNL1        0.3408
     27 C           5.9713    0.0671    0.0000 C.ar    1  UNL1       -0.0481
     28 C           5.2268   -5.6832    0.0000 C.3     1  UNL1       -0.0644
     29 C           7.7998   -0.3216    0.0000 C.ar    1  UNL1        0.0015
     30 C           6.5967    0.7617    0.0000 C.ar    1  UNL1        0.0172
     31 C           7.5110    0.5674    0.0000 C.ar    1  UNL1        0.1264
     32 C           6.2877    1.7128    0.0000 C.3     1  UNL1        0.1360
     33 C           7.2388    2.0218    0.0000 C.3     1  UNL1       -0.0234
     34 C           7.7687    2.8699    0.0000 C.3     1  UNL1       -0.0239
     35 C           5.3605    2.0874    0.0000 C.ar    1  UNL1        0.0418
     36 C           5.9131    0.7856    0.0000 C.2     1  UNL1        0.3235
     37 C           8.6440    3.3911    0.0000 C.3     1  UNL1       -0.0188
     38 C           7.6295    3.8601    0.0000 C.3     1  UNL1        0.0020
     39 C           8.4050   -5.8052    0.0000 C.3     1  UNL1        0.0818
     40 C           8.6631    4.4097    0.0000 C.3     1  UNL1        0.0788
     41 C           4.8910    2.9704    0.0000 C.ar    1  UNL1       -0.0165
     42 C           7.8080    4.9634    0.0000 C.3     1  UNL1        0.0278
     43 C           5.0990    3.9485    0.0000 C.3     1  UNL1       -0.0126
     44 C           5.8870    4.5642    0.0000 C.3     1  UNL1        0.0031
     45 C           3.9125    2.7952    0.0000 C.ar    1  UNL1        0.0032
     46 C           3.7750    1.8107    0.0000 C.ar    1  UNL1        0.0470
     47 C           9.1583    1.1026    0.0000 C.3     1  UNL1        0.0788
     48 C           9.6625    4.3748    0.0000 C.3     1  UNL1       -0.0256
     49 C           3.1059    3.4445    0.0000 C.ar    1  UNL1       -0.0523
     50 C          10.1319    3.4918    0.0000 C.3     1  UNL1       -0.0626
     51 C           2.8214    1.4072    0.0000 C.ar    1  UNL1       -0.0378
     52 C           7.6676    0.1577    0.0000 C.3     1  UNL1        0.0817
     53 C           2.1432    3.0632    0.0000 C.ar    1  UNL1       -0.0611
     54 C           2.0000    2.0377    0.0000 C.ar    1  UNL1       -0.0598
     55 H           4.8832   -3.5608    0.0000 H       1  UNL1        0.0480
     56 H           7.6692   -2.7765    0.0000 H       1  UNL1        0.0541
     57 H           6.1147   -1.1411    0.0000 H       1  UNL1        0.0287
     58 H           5.2972   -0.7987    0.0000 H       1  UNL1        0.0287
     59 H           6.2689   -4.7582    0.0000 H       1  UNL1        0.0308
     60 H           7.0270   -4.5119    0.0000 H       1  UNL1        0.0308
     61 H           3.8617   -1.4423    0.0000 H       1  UNL1        0.0427
     62 H           3.5125   -2.2293    0.0000 H       1  UNL1        0.0427
     63 H           8.0529   -1.7136    0.0000 H       1  UNL1        0.1465
     64 H           6.2776   -5.4287    0.0000 H       1  UNL1        0.0271
     65 H           6.4433   -4.6490    0.0000 H       1  UNL1        0.0271
     66 H           5.1530   -5.2733    0.0000 H       1  UNL1        0.0575
     67 H           3.3766   -3.1118    0.0000 H       1  UNL1        0.0470
     68 H           3.2109   -3.8914    0.0000 H       1  UNL1        0.0470
     69 H           3.6323   -4.9501    0.0000 H       1  UNL1        0.0582
     70 H           5.3648    0.1960    0.0000 H       1  UNL1        0.0625
     71 H           8.4925   -2.7190    0.0000 H       1  UNL1        0.2110
     72 H           4.7660   -5.2684    0.0000 H       1  UNL1        0.0230
     73 H           4.8119   -6.1440    0.0000 H       1  UNL1        0.0230
     74 H           5.6875   -6.0981    0.0000 H       1  UNL1        0.0230
     75 H           8.4063   -0.4505    0.0000 H       1  UNL1        0.0673
     76 H           7.2532    1.4020    0.0000 H       1  UNL1        0.0286
     77 H           7.8367    1.8579    0.0000 H       1  UNL1        0.0286
     78 H           8.2024    2.4268    0.0000 H       1  UNL1        0.0314
     79 H           8.8576    2.8091    0.0000 H       1  UNL1        0.0296
     80 H           9.2554    3.4939    0.0000 H       1  UNL1        0.0296
     81 H           8.2424    3.7667    0.0000 H       1  UNL1        0.0429
     82 H           7.8948    4.4205    0.0000 H       1  UNL1        0.0429
     83 H           7.9902   -6.2659    0.0000 H       1  UNL1        0.0661
     84 H           8.8658   -6.2200    0.0000 H       1  UNL1        0.0661
     85 H           8.8199   -5.3444    0.0000 H       1  UNL1        0.0661
     86 H           8.2351    5.4128    0.0000 H       1  UNL1        0.0455
     87 H           7.4449    5.4660    0.0000 H       1  UNL1        0.0455
     88 H           4.3572    0.8377    0.0000 H       1  UNL1        0.1656
     89 H           4.8734    4.5260    0.0000 H       1  UNL1        0.0326
     90 H           4.4810    3.8981    0.0000 H       1  UNL1        0.0326
     91 H           6.0854    5.1516    0.0000 H       1  UNL1        0.0430
     92 H           5.3812    4.9227    0.0000 H       1  UNL1        0.0430
     93 H          10.2521    4.5664    0.0000 H       1  UNL1        0.0291
     94 H           9.5762    4.9887    0.0000 H       1  UNL1        0.0291
     95 H           9.0294    0.4962    0.0000 H       1  UNL1        0.0660
     96 H           9.7647    0.9737    0.0000 H       1  UNL1        0.0660
     97 H           9.2872    1.7091    0.0000 H       1  UNL1        0.0660
     98 H           8.9019    5.8052    0.0000 H       1  UNL1        0.2102
     99 H           3.1988    4.0575    0.0000 H       1  UNL1        0.0624
    100 H           9.5845    3.2008    0.0000 H       1  UNL1        0.0231
    101 H          10.4230    2.9444    0.0000 H       1  UNL1        0.0231
    102 H          10.6794    3.7829    0.0000 H       1  UNL1        0.0231
    103 H           2.7427    0.7922    0.0000 H       1  UNL1        0.0638
    104 H           7.7538   -0.4563    0.0000 H       1  UNL1        0.0661
    105 H           8.2815    0.2439    0.0000 H       1  UNL1        0.0661
    106 H           7.5813    0.7716    0.0000 H       1  UNL1        0.0661
    107 H           1.6558    3.4464    0.0000 H       1  UNL1        0.0618
    108 H           1.4262    1.8027    0.0000 H       1  UNL1        0.0618
@<TRIPOS>BOND
     1    17     1    1
     2     1    71    1
     3     2    26    1
     4     2    39    1
     5     3    26    2
     6     4    31    1
     7     4    47    1
     8     5    36    1
     9     5    52    1
    10     6    36    2
    11     7    40    1
    12     7    98    1
    13     8    13    1
    14     8    20    1
    15     8    24    1
    16     9    15    1
    17     9    23    1
    18     9    63    1
    19    10    38    1
    20    10    42    1
    21    10    44    1
    22    11    35   ar
    23    11    46   ar
    24    11    88    1
    25    12    13    1
    26    12    15    1
    27    12    16    1
    28    12    19    1
    29    13    14    1
    30    13    55    1
    31    14    18    1
    32    14    21    1
    33    14    22    1
    34    15    17    1
    35    15    56    1
    36    16    20    1
    37    16    57    1
    38    16    58    1
    39    17    18    1
    40    17    26    1
    41    18    59    1
    42    18    60    1
    43    19    23   ar
    44    19    27   ar
    45    20    61    1
    46    20    62    1
    47    21    28    1
    48    21    64    1
    49    21    65    1
    50    22    25    2
    51    22    66    1
    52    23    29   ar
    53    24    25    1
    54    24    67    1
    55    24    68    1
    56    25    69    1
    57    27    30   ar
    58    27    70    1
    59    28    72    1
    60    28    73    1
    61    28    74    1
    62    29    31   ar
    63    29    75    1
    64    30    31   ar
    65    30    32    1
    66    32    33    1
    67    32    35    1
    68    32    36    1
    69    33    34    1
    70    33    76    1
    71    33    77    1
    72    34    37    1
    73    34    38    1
    74    34    78    1
    75    35    41   ar
    76    37    40    1
    77    37    79    1
    78    37    80    1
    79    38    81    1
    80    38    82    1
    81    39    83    1
    82    39    84    1
    83    39    85    1
    84    40    42    1
    85    40    48    1
    86    41    43    1
    87    41    45   ar
    88    42    86    1
    89    42    87    1
    90    43    44    1
    91    43    89    1
    92    43    90    1
    93    44    91    1
    94    44    92    1
    95    45    46   ar
    96    45    49   ar
    97    46    51   ar
    98    47    95    1
    99    47    96    1
   100    47    97    1
   101    48    50    1
   102    48    93    1
   103    48    94    1
   104    49    53   ar
   105    49    99    1
   106    50   100    1
   107    50   101    1
   108    50   102    1
   109    51    54   ar
   110    51   103    1
   111    52   104    1
   112    52   105    1
   113    52   106    1
   114    53    54   ar
   115    53   107    1
   116    54   108    1
