@<TRIPOS>MOLECULE
IMPHY017210
 27 26 0 0 0
SMALL
GASTEIGER

@<TRIPOS>ATOM
      1 O           4.5981    1.3450    0.0000 O.3     1  UNL1       -0.3866
      2 C           3.7320   -0.1550    0.0000 C.3     1  UNL1        0.0272
      3 C           4.5981    0.3450    0.0000 C.3     1  UNL1        0.0856
      4 C           2.8660    0.3450    0.0000 C.2     1  UNL1       -0.0701
      5 C           5.4641   -0.1550    0.0000 C.2     1  UNL1       -0.0508
      6 C           3.7320   -1.1550    0.0000 C.2     1  UNL1       -0.0813
      7 C           2.0000   -0.1550    0.0000 C.3     1  UNL1       -0.0434
      8 C           6.3301    0.3450    0.0000 C.3     1  UNL1       -0.0416
      9 C           2.8660    1.3450    0.0000 C.2     1  UNL1       -0.0991
     10 C           5.4641   -1.1550    0.0000 C.2     1  UNL1       -0.0973
     11 C           2.8660   -1.6550    0.0000 C.2     1  UNL1       -0.1020
     12 H           4.2690   -0.4650    0.0000 H       1  UNL1        0.0416
     13 H           5.1350    0.6550    0.0000 H       1  UNL1        0.0649
     14 H           4.2690   -1.4650    0.0000 H       1  UNL1        0.0573
     15 H           1.6900    0.3819    0.0000 H       1  UNL1        0.0274
     16 H           1.4631   -0.4650    0.0000 H       1  UNL1        0.0274
     17 H           2.3100   -0.6919    0.0000 H       1  UNL1        0.0274
     18 H           6.6401   -0.1919    0.0000 H       1  UNL1        0.0275
     19 H           6.8671    0.6550    0.0000 H       1  UNL1        0.0275
     20 H           6.0201    0.8819    0.0000 H       1  UNL1        0.0275
     21 H           5.1350    1.6550    0.0000 H       1  UNL1        0.2103
     22 H           3.4030    1.6550    0.0000 H       1  UNL1        0.0535
     23 H           2.3291    1.6550    0.0000 H       1  UNL1        0.0535
     24 H           4.9272   -1.4650    0.0000 H       1  UNL1        0.0535
     25 H           6.0010   -1.4650    0.0000 H       1  UNL1        0.0535
     26 H           2.3291   -1.3450    0.0000 H       1  UNL1        0.0532
     27 H           2.8660   -2.2750    0.0000 H       1  UNL1        0.0532
@<TRIPOS>BOND
     1     1     3    1
     2     1    21    1
     3     2     3    1
     4     2     4    1
     5     2     6    1
     6     2    12    1
     7     3     5    1
     8     3    13    1
     9     4     7    1
    10     4     9    2
    11     5     8    1
    12     5    10    2
    13     6    11    2
    14     6    14    1
    15     7    15    1
    16     7    16    1
    17     7    17    1
    18     8    18    1
    19     8    19    1
    20     8    20    1
    21     9    22    1
    22     9    23    1
    23    10    24    1
    24    10    25    1
    25    11    26    1
    26    11    27    1
