@<TRIPOS>MOLECULE
IMPHY015997
 29 29 0 0 0
SMALL
GASTEIGER

@<TRIPOS>ATOM
      1 O           3.0000    2.3450    0.0000 O.3     1  UNL1       -0.3888
      2 C           3.0000    0.3450    0.0000 C.3     1  UNL1       -0.0089
      3 C           3.0000    1.3450    0.0000 C.3     1  UNL1        0.0636
      4 C           2.1340   -0.1550    0.0000 C.3     1  UNL1       -0.0437
      5 C           3.8660   -0.1550    0.0000 C.3     1  UNL1       -0.0291
      6 C           2.1340   -1.1550    0.0000 C.3     1  UNL1       -0.0317
      7 C           3.0000   -1.6550    0.0000 C.2     1  UNL1       -0.0765
      8 C           3.8660   -1.1550    0.0000 C.2     1  UNL1       -0.0847
      9 C           4.0000    1.3450    0.0000 C.3     1  UNL1       -0.0361
     10 C           2.0000    1.3450    0.0000 C.3     1  UNL1       -0.0361
     11 C           3.0000   -2.6550    0.0000 C.3     1  UNL1       -0.0438
     12 H           3.7361    0.7700    0.0000 H       1  UNL1        0.0331
     13 H           1.9219    0.4276    0.0000 H       1  UNL1        0.0272
     14 H           1.5234   -0.2627    0.0000 H       1  UNL1        0.0272
     15 H           4.4766   -0.2627    0.0000 H       1  UNL1        0.0311
     16 H           4.0781    0.4276    0.0000 H       1  UNL1        0.0311
     17 H           1.5234   -1.0473    0.0000 H       1  UNL1        0.0310
     18 H           1.9219   -1.7376    0.0000 H       1  UNL1        0.0310
     19 H           4.4030   -1.4650    0.0000 H       1  UNL1        0.0572
     20 H           4.0000    0.7250    0.0000 H       1  UNL1        0.0257
     21 H           4.6200    1.3450    0.0000 H       1  UNL1        0.0257
     22 H           4.0000    1.9650    0.0000 H       1  UNL1        0.0257
     23 H           2.0000    1.9650    0.0000 H       1  UNL1        0.0257
     24 H           1.3800    1.3450    0.0000 H       1  UNL1        0.0257
     25 H           2.0000    0.7250    0.0000 H       1  UNL1        0.0257
     26 H           3.5369    2.6550    0.0000 H       1  UNL1        0.2101
     27 H           2.3800   -2.6550    0.0000 H       1  UNL1        0.0274
     28 H           3.0000   -3.2750    0.0000 H       1  UNL1        0.0274
     29 H           3.6200   -2.6550    0.0000 H       1  UNL1        0.0274
@<TRIPOS>BOND
     1     1     3    1
     2     1    26    1
     3     2     3    1
     4     2     4    1
     5     2     5    1
     6     2    12    1
     7     3     9    1
     8     3    10    1
     9     4     6    1
    10     4    13    1
    11     4    14    1
    12     5     8    1
    13     5    15    1
    14     5    16    1
    15     6     7    1
    16     6    17    1
    17     6    18    1
    18     7     8    2
    19     7    11    1
    20     8    19    1
    21     9    20    1
    22     9    21    1
    23     9    22    1
    24    10    23    1
    25    10    24    1
    26    10    25    1
    27    11    27    1
    28    11    28    1
    29    11    29    1
