@<TRIPOS>MOLECULE
IMPHY003428
 83 86 0 0 0
SMALL
GASTEIGER

@<TRIPOS>ATOM
      1 O          10.4473   -0.7906    0.0000 O.3     1  UNL1       -0.3914
      2 O           5.3194    0.2094    0.0000 O.2     1  UNL1       -0.2968
      3 O          10.1248    0.6540    0.0000 O.3     1  UNL1       -0.3810
      4 O           2.5405   -1.2513    0.0000 O.3     1  UNL1       -0.3842
      5 O           8.8172    2.6595    0.0000 O.2     1  UNL1       -0.2944
      6 O           2.5244   -3.3429    0.0000 O.2     1  UNL1       -0.2937
      7 O          12.7312    3.4844    0.0000 O.3     1  UNL1       -0.3891
      8 C           7.9174   -1.2906    0.0000 C.3     1  UNL1       -0.0195
      9 C           7.9174   -0.2906    0.0000 C.3     1  UNL1       -0.0115
     10 C           7.0514   -1.7906    0.0000 C.3     1  UNL1       -0.0190
     11 C           6.1854   -1.2906    0.0000 C.3     1  UNL1        0.0364
     12 C           8.8637    0.0142    0.0000 C.3     1  UNL1        0.0268
     13 C           8.8637   -1.5953    0.0000 C.3     1  UNL1       -0.0202
     14 C           9.4473   -0.7906    0.0000 C.3     1  UNL1        0.0621
     15 C           7.0514    0.2094    0.0000 C.3     1  UNL1        0.0127
     16 C           5.2754   -1.7974    0.0000 C.3     1  UNL1       -0.0039
     17 C           6.1854   -0.2906    0.0000 C.2     1  UNL1        0.1406
     18 C           7.0675   -2.8321    0.0000 C.3     1  UNL1       -0.0302
     19 C           7.9174   -2.2906    0.0000 C.3     1  UNL1       -0.0587
     20 C           7.9174    0.7094    0.0000 C.3     1  UNL1       -0.0582
     21 C           9.1743    0.9647    0.0000 C.3     1  UNL1        0.1264
     22 C           5.2674   -2.8390    0.0000 C.2     1  UNL1       -0.0565
     23 C           5.3194   -0.7906    0.0000 C.3     1  UNL1       -0.0520
     24 C           4.3486   -1.2333    0.0000 C.3     1  UNL1       -0.0124
     25 C           6.1694   -3.3598    0.0000 C.2     1  UNL1       -0.0832
     26 C           4.3319   -3.3887    0.0000 C.3     1  UNL1        0.0471
     27 C           3.4007   -1.7613    0.0000 C.3     1  UNL1        0.1144
     28 C           8.2238    1.2754    0.0000 C.3     1  UNL1       -0.0287
     29 C           9.4850    1.9152    0.0000 C.2     1  UNL1        0.1648
     30 C           3.3923   -2.8462    0.0000 C.2     1  UNL1        0.1710
     31 C           3.8353   -4.2567    0.0000 C.3     1  UNL1       -0.0492
     32 C           4.8353   -4.2528    0.0000 C.3     1  UNL1       -0.0492
     33 C          10.4635    2.1214    0.0000 C.3     1  UNL1        0.0113
     34 C          10.7742    3.0720    0.0000 C.3     1  UNL1       -0.0178
     35 C          11.7527    3.2782    0.0000 C.3     1  UNL1        0.0609
     36 C          11.5464    4.2567    0.0000 C.3     1  UNL1       -0.0363
     37 C          11.9589    2.2997    0.0000 C.3     1  UNL1       -0.0363
     38 H           7.7908   -2.2099    0.0000 H       1  UNL1        0.0319
     39 H           8.2639    0.6165    0.0000 H       1  UNL1        0.0363
     40 H           8.6126   -2.1622    0.0000 H       1  UNL1        0.0296
     41 H           9.4010   -1.9045    0.0000 H       1  UNL1        0.0296
     42 H           9.7290   -1.3429    0.0000 H       1  UNL1        0.0597
     43 H           7.4500    0.6844    0.0000 H       1  UNL1        0.0347
     44 H           6.6529    0.6844    0.0000 H       1  UNL1        0.0347
     45 H           6.0066   -2.2309    0.0000 H       1  UNL1        0.0356
     46 H           7.2855   -3.4125    0.0000 H       1  UNL1        0.0311
     47 H           7.6766   -2.7166    0.0000 H       1  UNL1        0.0311
     48 H           7.2974   -2.2906    0.0000 H       1  UNL1        0.0235
     49 H           7.9174   -2.9106    0.0000 H       1  UNL1        0.0235
     50 H           8.5374   -2.2906    0.0000 H       1  UNL1        0.0235
     51 H           8.5374    0.7094    0.0000 H       1  UNL1        0.0235
     52 H           7.9174    1.3294    0.0000 H       1  UNL1        0.0235
     53 H           7.2974    0.7094    0.0000 H       1  UNL1        0.0235
     54 H           5.6294   -0.2536    0.0000 H       1  UNL1        0.0239
     55 H           4.7824   -0.4806    0.0000 H       1  UNL1        0.0239
     56 H           5.0094   -1.3275    0.0000 H       1  UNL1        0.0239
     57 H           4.7568   -0.7667    0.0000 H       1  UNL1        0.0300
     58 H           3.9586   -0.7513    0.0000 H       1  UNL1        0.0300
     59 H           6.1718   -3.9798    0.0000 H       1  UNL1        0.0572
     60 H          10.7573   -1.3275    0.0000 H       1  UNL1        0.2098
     61 H           3.4090   -1.1413    0.0000 H       1  UNL1        0.0673
     62 H           8.4164    1.8647    0.0000 H       1  UNL1        0.0262
     63 H           7.6345    1.4680    0.0000 H       1  UNL1        0.0262
     64 H           8.0312    0.6860    0.0000 H       1  UNL1        0.0262
     65 H          10.5863    1.0681    0.0000 H       1  UNL1        0.2107
     66 H           3.2972   -3.9488    0.0000 H       1  UNL1        0.0242
     67 H           3.5274   -4.7948    0.0000 H       1  UNL1        0.0242
     68 H           4.3734   -4.5646    0.0000 H       1  UNL1        0.0242
     69 H           4.2995   -4.5649    0.0000 H       1  UNL1        0.0242
     70 H           5.1473   -4.7886    0.0000 H       1  UNL1        0.0242
     71 H           5.3710   -3.9408    0.0000 H       1  UNL1        0.0242
     72 H          10.4841    1.5018    0.0000 H       1  UNL1        0.0343
     73 H          11.0773    2.0341    0.0000 H       1  UNL1        0.0343
     74 H           2.0000   -1.5551    0.0000 H       1  UNL1        0.2104
     75 H          10.7536    3.6916    0.0000 H       1  UNL1        0.0297
     76 H          10.1603    3.1593    0.0000 H       1  UNL1        0.0297
     77 H          12.1531    4.3845    0.0000 H       1  UNL1        0.0257
     78 H          11.4186    4.8633    0.0000 H       1  UNL1        0.0257
     79 H          10.9398    4.1288    0.0000 H       1  UNL1        0.0257
     80 H          11.3522    2.1718    0.0000 H       1  UNL1        0.0257
     81 H          12.0867    1.6930    0.0000 H       1  UNL1        0.0257
     82 H          12.5656    2.4275    0.0000 H       1  UNL1        0.0257
     83 H          12.9238    4.0737    0.0000 H       1  UNL1        0.2101
@<TRIPOS>BOND
     1    14     1    1
     2     1    60    1
     3     2    17    2
     4    21     3    1
     5     3    65    1
     6    27     4    1
     7     4    74    1
     8     5    29    2
     9     6    30    2
    10     7    35    1
    11     7    83    1
    12     8     9    1
    13     8    10    1
    14     8    13    1
    15     8    19    1
    16     9    12    1
    17     9    15    1
    18     9    20    1
    19    10    11    1
    20    10    18    1
    21    10    38    1
    22    11    16    1
    23    11    17    1
    24    11    23    1
    25    12    14    1
    26    12    21    1
    27    12    39    1
    28    13    14    1
    29    13    40    1
    30    13    41    1
    31    14    42    1
    32    15    17    1
    33    15    43    1
    34    15    44    1
    35    16    22    1
    36    16    24    1
    37    16    45    1
    38    18    25    1
    39    18    46    1
    40    18    47    1
    41    19    48    1
    42    19    49    1
    43    19    50    1
    44    20    51    1
    45    20    52    1
    46    20    53    1
    47    21    28    1
    48    21    29    1
    49    22    25    2
    50    22    26    1
    51    23    54    1
    52    23    55    1
    53    23    56    1
    54    24    27    1
    55    24    57    1
    56    24    58    1
    57    25    59    1
    58    26    30    1
    59    26    31    1
    60    26    32    1
    61    27    30    1
    62    27    61    1
    63    28    62    1
    64    28    63    1
    65    28    64    1
    66    29    33    1
    67    31    66    1
    68    31    67    1
    69    31    68    1
    70    32    69    1
    71    32    70    1
    72    32    71    1
    73    33    34    1
    74    33    72    1
    75    33    73    1
    76    34    35    1
    77    34    75    1
    78    34    76    1
    79    35    36    1
    80    35    37    1
    81    36    77    1
    82    36    78    1
    83    36    79    1
    84    37    80    1
    85    37    81    1
    86    37    82    1
