@<TRIPOS>MOLECULE
IMPHY005819
 51 55 0 0 0
SMALL
GASTEIGER

@<TRIPOS>ATOM
      1 O           6.6555   -2.1870    0.0000 O.3     1  UNL1       -0.4677
      2 O           7.0156   -0.4928    0.0000 O.2     1  UNL1       -0.2505
      3 N           2.6254   -0.4450    0.0000 N.3     1  UNL1       -0.2940
      4 N           5.7049    0.5556    0.0000 N.pl3   1  UNL1       -0.3391
      5 C           4.1652    0.0553    0.0000 C.3     1  UNL1        0.0340
      6 C           3.5397   -0.6393    0.0000 C.3     1  UNL1        0.0312
      7 C           3.8286   -1.5283    0.0000 C.3     1  UNL1        0.0058
      8 C           5.0795   -0.1390    0.0000 C.3     1  UNL1        0.0447
      9 C           3.7801    1.0909    0.0000 C.3     1  UNL1       -0.0273
     10 C           5.3683   -1.0280    0.0000 C.3     1  UNL1        0.0763
     11 C           4.7429   -1.7226    0.0000 C.3     1  UNL1       -0.0278
     12 C           2.3366    0.4440    0.0000 C.3     1  UNL1        0.0005
     13 C           4.5018    1.6389    0.0000 C.ar    1  UNL1       -0.0170
     14 C           4.1376   -2.4794    0.0000 C.3     1  UNL1       -0.0453
     15 C           3.2031   -2.2229    0.0000 C.2     1  UNL1       -0.0790
     16 C           2.0000   -1.1396    0.0000 C.3     1  UNL1        0.0174
     17 C           5.4161    1.4446    0.0000 C.ar    1  UNL1        0.0312
     18 C           2.2888   -2.0286    0.0000 C.2     1  UNL1       -0.0734
     19 C           6.3465   -1.2359    0.0000 C.2     1  UNL1        0.3118
     20 C           4.2129    2.5279    0.0000 C.ar    1  UNL1       -0.0562
     21 C           3.4685   -3.2225    0.0000 C.3     1  UNL1       -0.0644
     22 C           6.0415    2.1392    0.0000 C.ar    1  UNL1       -0.0406
     23 C           4.8384    3.2225    0.0000 C.ar    1  UNL1       -0.0614
     24 C           5.7527    3.0282    0.0000 C.ar    1  UNL1       -0.0600
     25 C           7.6336   -2.3949    0.0000 C.3     1  UNL1        0.0817
     26 H           3.1249   -1.1001    0.0000 H       1  UNL1        0.0480
     27 H           5.6859   -0.2679    0.0000 H       1  UNL1        0.0515
     28 H           4.3564    1.3196    0.0000 H       1  UNL1        0.0287
     29 H           3.5389    1.6621    0.0000 H       1  UNL1        0.0287
     30 H           5.5599   -1.6177    0.0000 H       1  UNL1        0.0432
     31 H           4.5106   -2.2975    0.0000 H       1  UNL1        0.0282
     32 H           5.2687   -2.0512    0.0000 H       1  UNL1        0.0282
     33 H           2.1034    1.0184    0.0000 H       1  UNL1        0.0427
     34 H           1.7542    0.2314    0.0000 H       1  UNL1        0.0427
     35 H           4.5193   -2.9679    0.0000 H       1  UNL1        0.0271
     36 H           4.6850   -2.1883    0.0000 H       1  UNL1        0.0271
     37 H           6.3114    0.4267    0.0000 H       1  UNL1        0.1464
     38 H           3.3947   -2.8126    0.0000 H       1  UNL1        0.0575
     39 H           1.6183   -0.6510    0.0000 H       1  UNL1        0.0470
     40 H           1.4526   -1.4307    0.0000 H       1  UNL1        0.0470
     41 H           1.8740   -2.4893    0.0000 H       1  UNL1        0.0582
     42 H           3.6065    2.6568    0.0000 H       1  UNL1        0.0621
     43 H           3.0077   -2.8076    0.0000 H       1  UNL1        0.0230
     44 H           3.0536   -3.6832    0.0000 H       1  UNL1        0.0230
     45 H           3.9292   -3.6374    0.0000 H       1  UNL1        0.0230
     46 H           6.6480    2.0103    0.0000 H       1  UNL1        0.0636
     47 H           4.6468    3.8122    0.0000 H       1  UNL1        0.0618
     48 H           6.1676    3.4889    0.0000 H       1  UNL1        0.0618
     49 H           7.5047   -3.0013    0.0000 H       1  UNL1        0.0661
     50 H           8.2401   -2.5238    0.0000 H       1  UNL1        0.0661
     51 H           7.7625   -1.7884    0.0000 H       1  UNL1        0.0661
@<TRIPOS>BOND
     1     1    19    1
     2     1    25    1
     3     2    19    2
     4     3     6    1
     5     3    12    1
     6     3    16    1
     7     4     8    1
     8     4    17    1
     9     4    37    1
    10     5     6    1
    11     5     8    1
    12     5     9    1
    13     5    13    1
    14     6     7    1
    15     6    26    1
    16     7    11    1
    17     7    14    1
    18     7    15    1
    19     8    10    1
    20     8    27    1
    21     9    12    1
    22     9    28    1
    23     9    29    1
    24    10    11    1
    25    10    19    1
    26    10    30    1
    27    11    31    1
    28    11    32    1
    29    12    33    1
    30    12    34    1
    31    13    17   ar
    32    13    20   ar
    33    14    21    1
    34    14    35    1
    35    14    36    1
    36    15    18    2
    37    15    38    1
    38    16    18    1
    39    16    39    1
    40    16    40    1
    41    17    22   ar
    42    18    41    1
    43    20    23   ar
    44    20    42    1
    45    21    43    1
    46    21    44    1
    47    21    45    1
    48    22    24   ar
    49    22    46    1
    50    23    24   ar
    51    23    47    1
    52    24    48    1
    53    25    49    1
    54    25    50    1
    55    25    51    1
