@<TRIPOS>MOLECULE
IMPHY000951
 181 190 0 0 0
SMALL
GASTEIGER

@<TRIPOS>ATOM
      1 O          11.7543    4.1557    0.0000 O.3     1  UNL1       -0.3450
      2 O          10.2252    5.3876    0.0000 O.3     1  UNL1       -0.3642
      3 O          10.3312   -4.0884    0.0000 O.3     1  UNL1       -0.3454
      4 O           8.5991   -4.0884    0.0000 O.3     1  UNL1       -0.3405
      5 O          10.3312   -6.0884    0.0000 O.3     1  UNL1       -0.3378
      6 O          14.3888    7.2550    0.0000 O.3     1  UNL1       -0.3484
      7 O           8.5991   -7.0884    0.0000 O.3     1  UNL1       -0.3864
      8 O           6.8671   -6.0884    0.0000 O.3     1  UNL1       -0.3401
      9 O           6.8671   -3.0884    0.0000 O.3     1  UNL1       -0.3460
     10 O          11.1972   -4.5884    0.0000 O.3     1  UNL1       -0.3405
     11 O          15.8862    8.1255    0.0000 O.3     1  UNL1       -0.3405
     12 O           7.7331   -7.5884    0.0000 O.3     1  UNL1       -0.3431
     13 O          12.0632   -7.0884    0.0000 O.3     1  UNL1       -0.3841
     14 O          15.3939    5.5260    0.0000 O.3     1  UNL1       -0.3841
     15 O          13.7953   -6.0884    0.0000 O.3     1  UNL1       -0.3864
     16 O          17.3939    5.5319    0.0000 O.3     1  UNL1       -0.3864
     17 O           5.1350   -3.0884    0.0000 O.3     1  UNL1       -0.3405
     18 O           5.1350   -7.0884    0.0000 O.3     1  UNL1       -0.3841
     19 O          13.7953   -4.0884    0.0000 O.3     1  UNL1       -0.3865
     20 O          18.3888    7.2670    0.0000 O.3     1  UNL1       -0.3865
     21 O           5.1350   -9.0884    0.0000 O.3     1  UNL1       -0.3864
     22 O           6.8671   -1.0884    0.0000 O.3     1  UNL1       -0.3841
     23 O          12.9292   -2.5884    0.0000 O.3     1  UNL1       -0.3924
     24 O           6.8671  -10.0884    0.0000 O.3     1  UNL1       -0.3866
     25 O          16.8810    9.8605    0.0000 O.3     1  UNL1       -0.3924
     26 O           5.1350   -0.0884    0.0000 O.3     1  UNL1       -0.3864
     27 O           3.4030   -1.0884    0.0000 O.3     1  UNL1       -0.3865
     28 O           2.5369   -2.5884    0.0000 O.3     1  UNL1       -0.3924
     29 C          10.3604    2.1085    0.0000 C.3     1  UNL1       -0.0233
     30 C          11.2284    1.6118    0.0000 C.3     1  UNL1       -0.0298
     31 C          11.2322    0.6118    0.0000 C.3     1  UNL1       -0.0343
     32 C          10.5659    3.0811    0.0000 C.3     1  UNL1       -0.0015
     33 C          10.3681    0.1085    0.0000 C.3     1  UNL1       -0.0323
     34 C          10.3561   -0.9331    0.0000 C.3     1  UNL1       -0.0260
     35 C          11.5542    3.1880    0.0000 C.3     1  UNL1        0.0660
     36 C          11.9628    2.2817    0.0000 C.3     1  UNL1       -0.0226
     37 C           9.4963    1.6051    0.0000 C.3     1  UNL1       -0.0467
     38 C           9.5002    0.6051    0.0000 C.3     1  UNL1       -0.0489
     39 C          11.2562   -1.4574    0.0000 C.3     1  UNL1       -0.0330
     40 C          10.1636    3.9837    0.0000 C.3     1  UNL1        0.0158
     41 C          12.1442    0.1085    0.0000 C.3     1  UNL1       -0.0494
     42 C          12.1562   -0.9331    0.0000 C.3     1  UNL1       -0.0494
     43 C           9.4925    2.6051    0.0000 C.3     1  UNL1       -0.0590
     44 C          10.8966    4.6465    0.0000 C.3     1  UNL1        0.1704
     45 C           9.4062   -1.4574    0.0000 C.3     1  UNL1       -0.0448
     46 C          11.2687   -2.5423    0.0000 C.3     1  UNL1       -0.0232
     47 C           9.4920   -0.4297    0.0000 C.3     1  UNL1       -0.0590
     48 C           9.3936   -2.5423    0.0000 C.3     1  UNL1       -0.0260
     49 C          10.3312   -3.0884    0.0000 C.3     1  UNL1        0.0621
     50 C           9.1852    4.1904    0.0000 C.3     1  UNL1       -0.0572
     51 C          11.3940    5.5140    0.0000 C.3     1  UNL1        0.0018
     52 C          12.3940    5.5170    0.0000 C.3     1  UNL1       -0.0435
     53 C          12.8914    6.3845    0.0000 C.3     1  UNL1       -0.0201
     54 C           9.4651   -4.5884    0.0000 C.3     1  UNL1        0.1886
     55 C           9.4651   -5.5884    0.0000 C.3     1  UNL1        0.1406
     56 C          13.8914    6.3875    0.0000 C.3     1  UNL1        0.0533
     57 C          12.3888    7.2490    0.0000 C.3     1  UNL1       -0.0603
     58 C           8.5991   -6.0884    0.0000 C.3     1  UNL1        0.1148
     59 C           7.7331   -4.5884    0.0000 C.3     1  UNL1        0.1137
     60 C           7.7331   -5.5884    0.0000 C.3     1  UNL1        0.1184
     61 C           6.8671   -4.0884    0.0000 C.3     1  UNL1        0.0796
     62 C          11.1972   -5.5884    0.0000 C.3     1  UNL1        0.1885
     63 C          15.3888    7.2580    0.0000 C.3     1  UNL1        0.1879
     64 C          12.0632   -6.0884    0.0000 C.3     1  UNL1        0.1341
     65 C          15.8914    6.3935    0.0000 C.3     1  UNL1        0.1341
     66 C           6.8671   -7.0884    0.0000 C.3     1  UNL1        0.1883
     67 C          12.9292   -5.5884    0.0000 C.3     1  UNL1        0.1141
     68 C          16.8914    6.3965    0.0000 C.3     1  UNL1        0.1141
     69 C          12.0632   -4.0884    0.0000 C.3     1  UNL1        0.1130
     70 C           6.0010   -7.5884    0.0000 C.3     1  UNL1        0.1341
     71 C          12.9292   -4.5884    0.0000 C.3     1  UNL1        0.1119
     72 C          16.8862    8.1285    0.0000 C.3     1  UNL1        0.1130
     73 C           6.0010   -2.5884    0.0000 C.3     1  UNL1        0.1880
     74 C          17.3888    7.2640    0.0000 C.3     1  UNL1        0.1119
     75 C           6.0010   -8.5884    0.0000 C.3     1  UNL1        0.1140
     76 C           7.7331   -8.5884    0.0000 C.3     1  UNL1        0.0873
     77 C           6.0010   -1.5884    0.0000 C.3     1  UNL1        0.1341
     78 C          12.0632   -3.0884    0.0000 C.3     1  UNL1        0.0730
     79 C           6.8671   -9.0884    0.0000 C.3     1  UNL1        0.1095
     80 C          17.3836    8.9960    0.0000 C.3     1  UNL1        0.0730
     81 C           5.1350   -1.0884    0.0000 C.3     1  UNL1        0.1141
     82 C           4.2690   -2.5884    0.0000 C.3     1  UNL1        0.1130
     83 C           4.2690   -1.5884    0.0000 C.3     1  UNL1        0.1119
     84 C           8.5991   -9.0884    0.0000 C.3     1  UNL1       -0.0361
     85 C           3.4030   -3.0884    0.0000 C.3     1  UNL1        0.0730
     86 H          12.0067    1.2701    0.0000 H       1  UNL1        0.0310
     87 H          11.9634    1.0453    0.0000 H       1  UNL1        0.0306
     88 H           9.7206    2.9915    0.0000 H       1  UNL1        0.0335
     89 H          11.1026   -0.3193    0.0000 H       1  UNL1        0.0309
     90 H          12.3991    3.2812    0.0000 H       1  UNL1        0.0600
     91 H          12.3302    1.7823    0.0000 H       1  UNL1        0.0293
     92 H          12.4981    2.5946    0.0000 H       1  UNL1        0.0293
     93 H           9.2820    2.1869    0.0000 H       1  UNL1        0.0271
     94 H           8.8862    1.4951    0.0000 H       1  UNL1        0.0271
     95 H           8.8892    0.7105    0.0000 H       1  UNL1        0.0268
     96 H           9.2904    0.0217    0.0000 H       1  UNL1        0.0268
     97 H          11.9955   -1.8767    0.0000 H       1  UNL1        0.0307
     98 H          10.0021    4.5823    0.0000 H       1  UNL1        0.0354
     99 H          12.7562    0.0095    0.0000 H       1  UNL1        0.0268
    100 H          12.3465    0.6946    0.0000 H       1  UNL1        0.0268
    101 H          12.3720   -1.5143    0.0000 H       1  UNL1        0.0268
    102 H          12.7658   -0.8199    0.0000 H       1  UNL1        0.0268
    103 H           9.8004    3.1433    0.0000 H       1  UNL1        0.0235
    104 H           8.9544    2.9131    0.0000 H       1  UNL1        0.0235
    105 H           9.1846    2.0670    0.0000 H       1  UNL1        0.0235
    106 H           9.2039   -0.8713    0.0000 H       1  UNL1        0.0271
    107 H           8.7941   -1.5564    0.0000 H       1  UNL1        0.0271
    108 H          11.4845   -3.1235    0.0000 H       1  UNL1        0.0293
    109 H          11.8783   -2.4291    0.0000 H       1  UNL1        0.0293
    110 H           9.8041    0.1060    0.0000 H       1  UNL1        0.0235
    111 H           8.9563   -0.1177    0.0000 H       1  UNL1        0.0235
    112 H           9.1799   -0.9655    0.0000 H       1  UNL1        0.0235
    113 H           8.7840   -2.4291    0.0000 H       1  UNL1        0.0290
    114 H           9.1778   -3.1235    0.0000 H       1  UNL1        0.0290
    115 H          10.8687   -3.3974    0.0000 H       1  UNL1        0.0597
    116 H           9.3133    4.7970    0.0000 H       1  UNL1        0.0234
    117 H           8.5786    4.3185    0.0000 H       1  UNL1        0.0234
    118 H           9.0570    3.5838    0.0000 H       1  UNL1        0.0234
    119 H          11.4998    6.1249    0.0000 H       1  UNL1        0.0317
    120 H          10.8107    5.7243    0.0000 H       1  UNL1        0.0317
    121 H          10.4150    5.9778    0.0000 H       1  UNL1        0.2128
    122 H          12.2881    4.9061    0.0000 H       1  UNL1        0.0270
    123 H          12.9772    5.3067    0.0000 H       1  UNL1        0.0270
    124 H          13.1998    6.9224    0.0000 H       1  UNL1        0.0320
    125 H          10.0021   -4.8984    0.0000 H       1  UNL1        0.0938
    126 H           9.4651   -6.2084    0.0000 H       1  UNL1        0.0675
    127 H          13.7855    5.7766    0.0000 H       1  UNL1        0.0563
    128 H          14.4746    6.1772    0.0000 H       1  UNL1        0.0563
    129 H          12.9248    7.5606    0.0000 H       1  UNL1        0.0233
    130 H          12.0772    7.7850    0.0000 H       1  UNL1        0.0233
    131 H          11.8528    6.9374    0.0000 H       1  UNL1        0.0233
    132 H           8.0622   -6.3984    0.0000 H       1  UNL1        0.0648
    133 H           7.7331   -3.9684    0.0000 H       1  UNL1        0.0647
    134 H           7.1962   -5.2784    0.0000 H       1  UNL1        0.0651
    135 H           6.2565   -3.9807    0.0000 H       1  UNL1        0.0587
    136 H           6.6550   -4.6710    0.0000 H       1  UNL1        0.0587
    137 H          11.1972   -6.2084    0.0000 H       1  UNL1        0.0938
    138 H           9.1360   -7.3984    0.0000 H       1  UNL1        0.2100
    139 H          15.0772    7.7940    0.0000 H       1  UNL1        0.0937
    140 H          12.6002   -6.3984    0.0000 H       1  UNL1        0.0671
    141 H          15.2714    6.3916    0.0000 H       1  UNL1        0.0671
    142 H           6.3301   -6.7784    0.0000 H       1  UNL1        0.0938
    143 H          13.4662   -5.2784    0.0000 H       1  UNL1        0.0648
    144 H          17.5113    6.3983    0.0000 H       1  UNL1        0.0648
    145 H          11.5263   -3.7784    0.0000 H       1  UNL1        0.0647
    146 H           5.4641   -7.8984    0.0000 H       1  UNL1        0.0671
    147 H          12.9292   -3.9684    0.0000 H       1  UNL1        0.0647
    148 H          16.5746    8.6645    0.0000 H       1  UNL1        0.0647
    149 H           6.5380   -2.2784    0.0000 H       1  UNL1        0.0937
    150 H          17.6972    7.8018    0.0000 H       1  UNL1        0.0647
    151 H          12.6002   -7.3984    0.0000 H       1  UNL1        0.2101
    152 H           6.9488   -8.8984    0.0000 H       1  UNL1        0.0648
    153 H          15.7056    4.9899    0.0000 H       1  UNL1        0.2101
    154 H           8.2700   -8.2784    0.0000 H       1  UNL1        0.0621
    155 H           6.0010   -0.9684    0.0000 H       1  UNL1        0.0671
    156 H          11.8512   -2.5058    0.0000 H       1  UNL1        0.0584
    157 H          11.4526   -3.1961    0.0000 H       1  UNL1        0.0584
    158 H           6.3301   -9.3984    0.0000 H       1  UNL1        0.0646
    159 H          17.8597    8.5989    0.0000 H       1  UNL1        0.0584
    160 H          17.8573    9.3960    0.0000 H       1  UNL1        0.0584
    161 H          13.7953   -6.7084    0.0000 H       1  UNL1        0.2100
    162 H          18.0139    5.5338    0.0000 H       1  UNL1        0.2100
    163 H           4.5981   -7.3984    0.0000 H       1  UNL1        0.2101
    164 H          14.3322   -4.3984    0.0000 H       1  UNL1        0.2100
    165 H           4.5981   -0.7784    0.0000 H       1  UNL1        0.0648
    166 H          18.6971    7.8048    0.0000 H       1  UNL1        0.2100
    167 H           4.2690   -3.2084    0.0000 H       1  UNL1        0.0647
    168 H           4.8311   -0.9684    0.0000 H       1  UNL1        0.0647
    169 H           8.2891   -9.6253    0.0000 H       1  UNL1        0.0255
    170 H           9.1360   -9.3984    0.0000 H       1  UNL1        0.0255
    171 H           8.9091   -8.5515    0.0000 H       1  UNL1        0.0255
    172 H           5.1350   -9.7084    0.0000 H       1  UNL1        0.2100
    173 H           6.8671   -0.4684    0.0000 H       1  UNL1        0.2101
    174 H          13.4662   -2.8984    0.0000 H       1  UNL1        0.2095
    175 H           7.4040  -10.3984    0.0000 H       1  UNL1        0.2100
    176 H          17.1894   10.3984    0.0000 H       1  UNL1        0.2095
    177 H           3.0044   -3.5634    0.0000 H       1  UNL1        0.0584
    178 H           3.8015   -3.5634    0.0000 H       1  UNL1        0.0584
    179 H           4.5981    0.2216    0.0000 H       1  UNL1        0.2100
    180 H           3.4030   -0.4684    0.0000 H       1  UNL1        0.2100
    181 H           2.0000   -2.8984    0.0000 H       1  UNL1        0.2095
@<TRIPOS>BOND
     1     1    35    1
     2     1    44    1
     3    44     2    1
     4     2   121    1
     5    49     3    1
     6    54     3    1
     7     4    54    1
     8     4    59    1
     9    55     5    1
    10    62     5    1
    11     6    56    1
    12    63     6    1
    13    58     7    1
    14     7   138    1
    15    60     8    1
    16    66     8    1
    17     9    61    1
    18    73     9    1
    19    10    62    1
    20    10    69    1
    21    11    63    1
    22    11    72    1
    23    12    66    1
    24    12    76    1
    25    64    13    1
    26    13   151    1
    27    65    14    1
    28    14   153    1
    29    67    15    1
    30    15   161    1
    31    68    16    1
    32    16   162    1
    33    17    73    1
    34    17    82    1
    35    70    18    1
    36    18   163    1
    37    71    19    1
    38    19   164    1
    39    74    20    1
    40    20   166    1
    41    75    21    1
    42    21   172    1
    43    77    22    1
    44    22   173    1
    45    23    78    1
    46    23   174    1
    47    79    24    1
    48    24   175    1
    49    25    80    1
    50    25   176    1
    51    81    26    1
    52    26   179    1
    53    83    27    1
    54    27   180    1
    55    28    85    1
    56    28   181    1
    57    29    30    1
    58    29    32    1
    59    29    37    1
    60    29    43    1
    61    30    31    1
    62    30    36    1
    63    30    86    1
    64    31    33    1
    65    31    41    1
    66    31    87    1
    67    32    35    1
    68    32    40    1
    69    32    88    1
    70    33    34    1
    71    33    38    1
    72    33    89    1
    73    34    39    1
    74    34    45    1
    75    34    47    1
    76    35    36    1
    77    35    90    1
    78    36    91    1
    79    36    92    1
    80    37    38    1
    81    37    93    1
    82    37    94    1
    83    38    95    1
    84    38    96    1
    85    39    42    1
    86    39    46    1
    87    39    97    1
    88    40    44    1
    89    40    50    1
    90    40    98    1
    91    41    42    1
    92    41    99    1
    93    41   100    1
    94    42   101    1
    95    42   102    1
    96    43   103    1
    97    43   104    1
    98    43   105    1
    99    44    51    1
   100    45    48    1
   101    45   106    1
   102    45   107    1
   103    46    49    1
   104    46   108    1
   105    46   109    1
   106    47   110    1
   107    47   111    1
   108    47   112    1
   109    48    49    1
   110    48   113    1
   111    48   114    1
   112    49   115    1
   113    50   116    1
   114    50   117    1
   115    50   118    1
   116    51    52    1
   117    51   119    1
   118    51   120    1
   119    52    53    1
   120    52   122    1
   121    52   123    1
   122    53    56    1
   123    53    57    1
   124    53   124    1
   125    54    55    1
   126    54   125    1
   127    55    58    1
   128    55   126    1
   129    56   127    1
   130    56   128    1
   131    57   129    1
   132    57   130    1
   133    57   131    1
   134    58    60    1
   135    58   132    1
   136    59    60    1
   137    59    61    1
   138    59   133    1
   139    60   134    1
   140    61   135    1
   141    61   136    1
   142    62    64    1
   143    62   137    1
   144    63    65    1
   145    63   139    1
   146    64    67    1
   147    64   140    1
   148    65    68    1
   149    65   141    1
   150    66    70    1
   151    66   142    1
   152    67    71    1
   153    67   143    1
   154    68    74    1
   155    68   144    1
   156    69    71    1
   157    69    78    1
   158    69   145    1
   159    70    75    1
   160    70   146    1
   161    71   147    1
   162    72    74    1
   163    72    80    1
   164    72   148    1
   165    73    77    1
   166    73   149    1
   167    74   150    1
   168    75    79    1
   169    75   152    1
   170    76    79    1
   171    76    84    1
   172    76   154    1
   173    77    81    1
   174    77   155    1
   175    78   156    1
   176    78   157    1
   177    79   158    1
   178    80   159    1
   179    80   160    1
   180    81    83    1
   181    81   165    1
   182    82    83    1
   183    82    85    1
   184    82   167    1
   185    83   168    1
   186    84   169    1
   187    84   170    1
   188    84   171    1
   189    85   177    1
   190    85   178    1
