@<TRIPOS>MOLECULE
IMPHY002614
 41 44 0 0 0
SMALL
GASTEIGER

@<TRIPOS>ATOM
      1 O           2.0000    1.4607    0.0000 O.3     1  UNL1       -0.3645
      2 O           2.9435   -1.2697    0.0000 O.3     1  UNL1       -0.4605
      3 O           5.4646    2.4607    0.0000 O.3     1  UNL1       -0.3911
      4 O           2.8515   -3.0807    0.0000 O.2     1  UNL1       -0.2505
      5 C           3.7326    0.4607    0.0000 C.3     1  UNL1        0.0354
      6 C           2.8665    0.9607    0.0000 C.3     1  UNL1        0.1000
      7 C           4.5986    0.9607    0.0000 C.3     1  UNL1        0.0029
      8 C           2.8665    1.9607    0.0000 C.3     1  UNL1        0.0909
      9 C           3.7165   -0.5808    0.0000 C.3     1  UNL1        0.1127
     10 C           4.5986    1.9607    0.0000 C.3     1  UNL1        0.0635
     11 C           4.6145   -1.1086    0.0000 C.3     1  UNL1        0.0092
     12 C           3.7326    2.4607    0.0000 C.3     1  UNL1        0.0028
     13 C           5.5086    0.4538    0.0000 C.3     1  UNL1       -0.0444
     14 C           5.5166   -0.5878    0.0000 C.3     1  UNL1       -0.0455
     15 C           2.8665   -0.0393    0.0000 C.3     1  UNL1       -0.0329
     16 C           5.4646    1.4607    0.0000 C.3     1  UNL1       -0.0567
     17 C           4.3888   -2.1191    0.0000 C.3     1  UNL1        0.0598
     18 C           3.3582   -2.2185    0.0000 C.2     1  UNL1        0.3106
     19 C           5.0509   -2.8686    0.0000 C.3     1  UNL1       -0.0519
     20 H           4.2671    0.1466    0.0000 H       1  UNL1        0.0372
     21 H           2.5566    2.4977    0.0000 H       1  UNL1        0.0626
     22 H           3.1527   -0.3228    0.0000 H       1  UNL1        0.0741
     23 H           4.5986    2.5807    0.0000 H       1  UNL1        0.0599
     24 H           5.1142   -1.4756    0.0000 H       1  UNL1        0.0344
     25 H           4.1311    2.9356    0.0000 H       1  UNL1        0.0316
     26 H           3.3340    2.9356    0.0000 H       1  UNL1        0.0316
     27 H           6.1202    0.3525    0.0000 H       1  UNL1        0.0272
     28 H           5.7131    1.0391    0.0000 H       1  UNL1        0.0272
     29 H           5.7302   -1.1698    0.0000 H       1  UNL1        0.0269
     30 H           6.1266   -0.4770    0.0000 H       1  UNL1        0.0269
     31 H           2.2465   -0.0393    0.0000 H       1  UNL1        0.0258
     32 H           2.8665   -0.6593    0.0000 H       1  UNL1        0.0258
     33 H           3.4865   -0.0393    0.0000 H       1  UNL1        0.0258
     34 H           5.7746    0.9238    0.0000 H       1  UNL1        0.0236
     35 H           6.0016    1.7707    0.0000 H       1  UNL1        0.0236
     36 H           5.1546    1.9976    0.0000 H       1  UNL1        0.0236
     37 H           4.9893   -1.9646    0.0000 H       1  UNL1        0.0415
     38 H           5.4646    3.0807    0.0000 H       1  UNL1        0.2098
     39 H           4.5863   -3.2791    0.0000 H       1  UNL1        0.0238
     40 H           5.4614   -3.3332    0.0000 H       1  UNL1        0.0238
     41 H           5.5156   -2.4581    0.0000 H       1  UNL1        0.0238
@<TRIPOS>BOND
     1     1     6    1
     2     1     8    1
     3     2     9    1
     4     2    18    1
     5     3    10    1
     6     3    38    1
     7     4    18    2
     8     5     6    1
     9     5     7    1
    10     5     9    1
    11     5    20    1
    12     6     8    1
    13     6    15    1
    14     7    10    1
    15     7    13    1
    16     7    16    1
    17     8    12    1
    18     8    21    1
    19     9    11    1
    20     9    22    1
    21    10    12    1
    22    10    23    1
    23    11    14    1
    24    11    17    1
    25    11    24    1
    26    12    25    1
    27    12    26    1
    28    13    14    1
    29    13    27    1
    30    13    28    1
    31    14    29    1
    32    14    30    1
    33    15    31    1
    34    15    32    1
    35    15    33    1
    36    16    34    1
    37    16    35    1
    38    16    36    1
    39    17    18    1
    40    17    19    1
    41    17    37    1
    42    19    39    1
    43    19    40    1
    44    19    41    1
