@<TRIPOS>MOLECULE
IMPHY010712
 16 17 0 0 0
SMALL
GASTEIGER

@<TRIPOS>ATOM
      1 C           0.0000    0.0000    0.0000 C.3     1  UNL1        0.2526
      2 O           0.0000   -1.1226    0.0000 O.3     1  UNL1       -0.4684
      3 C           1.2068   -1.8172    0.0000 C.ar    1  UNL1        0.1726
      4 C           2.4276   -1.1226    0.0000 C.ar    1  UNL1        0.0456
      5 C           3.6344   -1.8172    0.0000 C.ar    1  UNL1        0.0637
      6 C           3.6344   -3.2134    0.0000 C.ar    1  UNL1        0.0148
      7 C           2.4276   -3.9080    0.0000 C.ar    1  UNL1        0.0404
      8 C           1.2068   -3.2134    0.0000 C.ar    1  UNL1        0.1724
      9 O           0.0000   -3.9150    0.0000 O.3     1  UNL1       -0.4684
     10 C           0.0000   -5.0306    0.0000 C.3     1  UNL1        0.2526
     11 C           4.8412   -3.9080    0.0000 C.ar    1  UNL1        0.0773
     12 C           6.0479   -3.2134    0.0000 C.ar    1  UNL1        0.3013
     13 N           6.0479   -1.8172    0.0000 N.ar    1  UNL1       -0.1608
     14 C           4.8412   -1.1226    0.0000 C.ar    1  UNL1        0.2140
     15 C           4.8412   -0.0070    0.0000 C.3     1  UNL1        0.1092
     16 O           7.0162   -1.2629    0.0000 O.co2   1  UNL1       -0.6190
@<TRIPOS>UNITY_ATOM_ATTR
13 1
charge 1
16 1
charge -1
@<TRIPOS>BOND
     1     1     2    1
     2     2     3    1
     3     3     8   ar
     4     3     4   ar
     5     4     5   ar
     6     5    14   ar
     7     5     6   ar
     8     6     7   ar
     9     6    11   ar
    10     7     8   ar
    11     8     9    1
    12     9    10    1
    13    11    12   ar
    14    12    13   ar
    15    13    14   ar
    16    13    16    1
    17    14    15    1
