@<TRIPOS>MOLECULE
IMPHY011583
 31 34 0 0 0
SMALL
GASTEIGER

@<TRIPOS>ATOM
      1 O           4.3697   -1.2077    0.0000 O.3     1  UNL1       -0.4485
      2 O           5.4910   -2.5668    0.0000 O.2     1  UNL1       -0.2456
      3 N           3.6931    1.3529    0.0000 N.3     1  UNL1       -0.2888
      4 C           4.4573   -0.2341    0.0000 C.3     1  UNL1        0.1560
      5 C           3.6931    0.3754    0.0000 C.3     1  UNL1        0.0551
      6 C           4.4573    1.9623    0.0000 C.3     1  UNL1        0.0335
      7 C           4.8884    0.9293    0.0000 C.3     1  UNL1        0.0122
      8 C           2.8465   -0.1134    0.0000 C.3     1  UNL1       -0.0332
      9 C           2.8465    1.8416    0.0000 C.3     1  UNL1       -0.0001
     10 C           5.4103   -0.0166    0.0000 C.2     1  UNL1        0.0039
     11 C           2.0000    0.3754    0.0000 C.3     1  UNL1       -0.0503
     12 C           2.0000    1.3529    0.0000 C.3     1  UNL1       -0.0401
     13 C           5.4103    1.7448    0.0000 C.2     1  UNL1       -0.0665
     14 C           5.8344    0.8641    0.0000 C.2     1  UNL1       -0.0570
     15 C           5.9116   -0.8557    0.0000 C.2     1  UNL1        0.0295
     16 C           5.2685   -1.5918    0.0000 C.2     1  UNL1        0.3332
     17 H           3.6296   -0.4723    0.0000 H       1  UNL1        0.0505
     18 H           4.2682    2.7910    0.0000 H       1  UNL1        0.0508
     19 H           5.3900    0.5648    0.0000 H       1  UNL1        0.0326
     20 H           5.3748    1.3137    0.0000 H       1  UNL1        0.0326
     21 H           2.4480   -0.5883    0.0000 H       1  UNL1        0.0282
     22 H           3.2451   -0.5883    0.0000 H       1  UNL1        0.0282
     23 H           3.2451    2.3166    0.0000 H       1  UNL1        0.0427
     24 H           2.4480    2.3166    0.0000 H       1  UNL1        0.0427
     25 H           1.3894    0.4830    0.0000 H       1  UNL1        0.0266
     26 H           1.7880   -0.2073    0.0000 H       1  UNL1        0.0266
     27 H           1.7880    1.9355    0.0000 H       1  UNL1        0.0278
     28 H           1.3894    1.2452    0.0000 H       1  UNL1        0.0278
     29 H           5.7969    2.2295    0.0000 H       1  UNL1        0.0588
     30 H           6.4544    0.8641    0.0000 H       1  UNL1        0.0619
     31 H           6.5291   -0.9113    0.0000 H       1  UNL1        0.0693
@<TRIPOS>BOND
     1     4     1    1
     2     1    16    1
     3     2    16    2
     4     3     5    1
     5     3     6    1
     6     3     9    1
     7     4     5    1
     8     4     7    1
     9     4    10    1
    10     5     8    1
    11     5    17    1
    12     6     7    1
    13     6    13    1
    14     6    18    1
    15     7    19    1
    16     7    20    1
    17     8    11    1
    18     8    21    1
    19     8    22    1
    20     9    12    1
    21     9    23    1
    22     9    24    1
    23    10    14    1
    24    10    15    2
    25    11    12    1
    26    11    25    1
    27    11    26    1
    28    12    27    1
    29    12    28    1
    30    13    14    2
    31    13    29    1
    32    14    30    1
    33    15    16    1
    34    15    31    1
