@<TRIPOS>MOLECULE
IMPHY017961
 13 12 0 0 0
SMALL
GASTEIGER

@<TRIPOS>ATOM
      1 S           2.5369   -0.5000    0.0000 S.3     1  UNL1       -0.0839
      2 C           5.1350    0.0000    0.0000 C.3     1  UNL1        0.0009
      3 C           4.2690    0.5000    0.0000 C.3     1  UNL1        0.0108
      4 C           6.0010    0.5000    0.0000 C.3     1  UNL1        0.0000
      5 C           3.4030    0.0000    0.0000 C.3     1  UNL1        0.0489
      6 C           6.8671    0.0000    0.0000 C.3     1  UNL1        0.0000
      7 C           7.7331    0.5000    0.0000 C.3     1  UNL1        0.0000
      8 C           8.5991    0.0000    0.0000 C.3     1  UNL1        0.0000
      9 C           9.4651    0.5000    0.0000 C.3     1  UNL1        0.0000
     10 C           2.9030    0.8660    0.0000 C.3     1  UNL1        0.0117
     11 C           3.9030   -0.8660    0.0000 C.3     1  UNL1        0.0117
     12 C          10.3312    0.0000    0.0000 C.3     1  UNL1        0.0000
     13 C          11.1972    0.5000    0.0000 C.3     1  UNL1        0.0000
@<TRIPOS>BOND
     1     1     5    1
     2     2     3    1
     3     2     4    1
     4     3     5    1
     5     4     6    1
     6     5    10    1
     7     5    11    1
     8     6     7    1
     9     7     8    1
    10     8     9    1
    11     9    12    1
    12    12    13    1
