@<TRIPOS>MOLECULE
IMPHY014241
 25 26 0 0 0
SMALL
GASTEIGER

@<TRIPOS>ATOM
      1 O           2.2944    1.0847    0.0000 O.2     1  UNL1       -0.2962
      2 C           4.0083   -0.6280    0.0000 C.3     1  UNL1       -0.0125
      3 C           3.0000   -0.6321    0.0000 C.3     1  UNL1        0.0280
      4 C           4.0083    0.3720    0.0000 C.3     1  UNL1        0.0428
      5 C           3.0000    0.3762    0.0000 C.2     1  UNL1        0.1465
      6 C           4.9593   -0.9370    0.0000 C.3     1  UNL1       -0.0298
      7 C           4.9593    0.6811    0.0000 C.2     1  UNL1       -0.0661
      8 C           2.0000   -0.6342    0.0000 C.3     1  UNL1       -0.0528
      9 C           3.0020   -1.6321    0.0000 C.3     1  UNL1       -0.0528
     10 C           5.5471   -0.1280    0.0000 C.2     1  UNL1       -0.0840
     11 C           5.2684    1.6321    0.0000 C.3     1  UNL1       -0.0431
     12 H           3.9126   -1.2405    0.0000 H       1  UNL1        0.0323
     13 H           3.9126    0.9846    0.0000 H       1  UNL1        0.0426
     14 H           4.7072   -1.5034    0.0000 H       1  UNL1        0.0311
     15 H           5.4963   -1.2470    0.0000 H       1  UNL1        0.0311
     16 H           1.9987   -0.0142    0.0000 H       1  UNL1        0.0239
     17 H           1.3800   -0.6354    0.0000 H       1  UNL1        0.0239
     18 H           2.0013   -1.2542    0.0000 H       1  UNL1        0.0239
     19 H           2.3820   -1.6334    0.0000 H       1  UNL1        0.0239
     20 H           3.0033   -2.2521    0.0000 H       1  UNL1        0.0239
     21 H           3.6220   -1.6308    0.0000 H       1  UNL1        0.0239
     22 H           6.1671   -0.1280    0.0000 H       1  UNL1        0.0572
     23 H           5.8580    1.4405    0.0000 H       1  UNL1        0.0275
     24 H           5.4599    2.2218    0.0000 H       1  UNL1        0.0275
     25 H           4.6787    1.8237    0.0000 H       1  UNL1        0.0275
@<TRIPOS>BOND
     1     1     5    2
     2     2     3    1
     3     2     4    1
     4     2     6    1
     5     2    12    1
     6     3     5    1
     7     3     8    1
     8     3     9    1
     9     4     5    1
    10     4     7    1
    11     4    13    1
    12     6    10    1
    13     6    14    1
    14     6    15    1
    15     7    10    2
    16     7    11    1
    17     8    16    1
    18     8    17    1
    19     8    18    1
    20     9    19    1
    21     9    20    1
    22     9    21    1
    23    10    22    1
    24    11    23    1
    25    11    24    1
    26    11    25    1
