@<TRIPOS>MOLECULE
IMPHY014673
 34 37 0 0 0
SMALL
GASTEIGER

@<TRIPOS>ATOM
      1 O           5.5301    2.3865    0.0000 O.2     1  UNL1       -0.4844
      2 O           7.2622    1.3865    0.0000 O.3     1  UNL1       -0.3802
      3 O           4.9431   -3.1701    0.0000 O.3     1  UNL1       -0.5033
      4 O           6.9742   -3.3818    0.0000 O.3     1  UNL1       -0.5033
      5 O           3.7817    3.4211    0.0000 O.2     1  UNL1       -0.5008
      6 O           2.0000    2.4106    0.0000 O.2     1  UNL1       -0.2839
      7 C           6.3961    0.8865    0.0000 C.3     1  UNL1        0.1298
      8 C           7.1332    0.2194    0.0000 C.3     1  UNL1        0.0094
      9 C           5.5301    0.3865    0.0000 C.2     1  UNL1        0.0057
     10 C           6.7280   -0.6884    0.0000 C.ar    1  UNL1       -0.0330
     11 C           5.7393   -0.5853    0.0000 C.ar    1  UNL1       -0.0114
     12 C           6.3961    1.8865    0.0000 C.3     1  UNL1        0.1229
     13 C           4.6641    0.8865    0.0000 C.2     1  UNL1        0.0271
     14 C           4.6641    1.8865    0.0000 C.2     1  UNL1        0.1732
     15 C           5.1186   -1.4141    0.0000 C.ar    1  UNL1       -0.0087
     16 C           7.1646   -1.6273    0.0000 C.ar    1  UNL1       -0.0127
     17 C           3.7702    0.3518    0.0000 C.2     1  UNL1       -0.0469
     18 C           5.5332   -2.3629    0.0000 C.ar    1  UNL1        0.1588
     19 C           6.5631   -2.4702    0.0000 C.ar    1  UNL1        0.1585
     20 C           3.7702    2.4212    0.0000 C.2     1  UNL1        0.2067
     21 C           2.8641    0.8657    0.0000 C.2     1  UNL1       -0.0104
     22 C           2.8641    1.9073    0.0000 C.2     1  UNL1        0.2238
     23 H           7.6697   -0.0914    0.0000 H       1  UNL1        0.0346
     24 H           7.4986    0.7203    0.0000 H       1  UNL1        0.0346
     25 H           7.0067    1.7788    0.0000 H       1  UNL1        0.0729
     26 H           6.6082    2.4691    0.0000 H       1  UNL1        0.0729
     27 H           4.5027   -1.3427    0.0000 H       1  UNL1        0.0661
     28 H           7.7819   -1.6845    0.0000 H       1  UNL1        0.0658
     29 H           7.7991    1.0765    0.0000 H       1  UNL1        0.2108
     30 H           3.7773   -0.2681    0.0000 H       1  UNL1        0.0626
     31 H           2.3284    0.5536    0.0000 H       1  UNL1        0.0657
     32 H           5.1935   -3.7373    0.0000 H       1  UNL1        0.2923
     33 H           7.5911   -3.4437    0.0000 H       1  UNL1        0.2923
     34 H           3.2484    3.7373    0.0000 H       1  UNL1        0.2924
@<TRIPOS>BOND
     1     1    12    1
     2     1    14    1
     3     2     7    1
     4     2    29    1
     5     3    18    1
     6     3    32    1
     7     4    19    1
     8     4    33    1
     9     5    20    1
    10     5    34    1
    11     6    22    2
    12     7     8    1
    13     7     9    1
    14     7    12    1
    15     8    10    1
    16     8    23    1
    17     8    24    1
    18     9    11    1
    19     9    13    2
    20    10    11   ar
    21    10    16   ar
    22    11    15   ar
    23    12    25    1
    24    12    26    1
    25    13    14    1
    26    13    17    1
    27    14    20    2
    28    15    18   ar
    29    15    27    1
    30    16    19   ar
    31    16    28    1
    32    17    21    2
    33    17    30    1
    34    18    19   ar
    35    20    22    1
    36    21    22    1
    37    21    31    1
