@<TRIPOS>MOLECULE
IMPHY006845
 21 22 0 0 0
SMALL
GASTEIGER

@<TRIPOS>ATOM
      1 C           4.5981   -0.5000    0.0000 C.ar    1  UNL1       -0.0176
      2 C           4.5981    0.5000    0.0000 C.ar    1  UNL1       -0.0179
      3 C           2.8660   -0.5000    0.0000 C.ar    1  UNL1       -0.0499
      4 C           3.7320   -1.0000    0.0000 C.ar    1  UNL1       -0.0511
      5 C           3.7320    1.0000    0.0000 C.ar    1  UNL1       -0.0538
      6 C           2.8660    0.5000    0.0000 C.ar    1  UNL1       -0.0582
      7 C           5.4920   -1.0347    0.0000 C.ar    1  UNL1       -0.0540
      8 C           5.4920    1.0347    0.0000 C.ar    1  UNL1       -0.0540
      9 C           2.0000   -1.0000    0.0000 C.3     1  UNL1       -0.0397
     10 C           6.3981   -0.5208    0.0000 C.ar    1  UNL1       -0.0612
     11 C           6.3981    0.5208    0.0000 C.ar    1  UNL1       -0.0612
     12 H           3.7320   -1.6200    0.0000 H       1  UNL1        0.0626
     13 H           3.7320    1.6200    0.0000 H       1  UNL1        0.0624
     14 H           2.3291    0.8100    0.0000 H       1  UNL1        0.0620
     15 H           5.4848   -1.6546    0.0000 H       1  UNL1        0.0624
     16 H           5.4848    1.6546    0.0000 H       1  UNL1        0.0624
     17 H           1.6900   -0.4631    0.0000 H       1  UNL1        0.0278
     18 H           1.4631   -1.3100    0.0000 H       1  UNL1        0.0278
     19 H           2.3100   -1.5369    0.0000 H       1  UNL1        0.0278
     20 H           6.9338   -0.8329    0.0000 H       1  UNL1        0.0618
     21 H           6.9338    0.8329    0.0000 H       1  UNL1        0.0618
@<TRIPOS>BOND
     1     1     2   ar
     2     1     4   ar
     3     1     7   ar
     4     2     5   ar
     5     2     8   ar
     6     3     4   ar
     7     3     6   ar
     8     3     9    1
     9     4    12    1
    10     5     6   ar
    11     5    13    1
    12     6    14    1
    13     7    10   ar
    14     7    15    1
    15     8    11   ar
    16     8    16    1
    17     9    17    1
    18     9    18    1
    19     9    19    1
    20    10    11   ar
    21    10    20    1
    22    11    21    1
