@<TRIPOS>MOLECULE
IMPHY008718
 49 53 0 0 0
SMALL
GASTEIGER

@<TRIPOS>ATOM
      1 O           5.4330    0.8543    0.0000 O.3     1  UNL1       -0.4569
      2 O           2.4884   -0.2463    0.0000 O.3     1  UNL1       -0.3881
      3 O           3.0480   -2.1068    0.0000 O.3     1  UNL1       -0.3891
      4 O           3.0112    1.4108    0.0000 O.2     1  UNL1       -0.2501
      5 O           6.5098    2.0827    0.0000 O.3     1  UNL1       -0.4804
      6 O           4.7839    1.9372    0.0000 O.2     1  UNL1       -0.2507
      7 C           6.5011   -0.0340    0.0000 C.3     1  UNL1       -0.0053
      8 C           5.2871   -0.8796    0.0000 C.3     1  UNL1        0.1239
      9 C           6.1992   -0.9012    0.0000 C.3     1  UNL1        0.0061
     10 C           5.0241   -0.0056    0.0000 C.3     1  UNL1        0.0307
     11 C           5.7729    0.5152    0.0000 C.3     1  UNL1        0.0701
     12 C           4.1068    0.2104    0.0000 C.3     1  UNL1        0.1003
     13 C           7.1971   -0.8664    0.0000 C.3     1  UNL1       -0.0394
     14 C           7.3680    0.2707    0.0000 C.3     1  UNL1       -0.0249
     15 C           6.6894   -1.6777    0.0000 C.3     1  UNL1       -0.0455
     16 C           4.6493   -1.5942    0.0000 C.3     1  UNL1        0.0163
     17 C           8.2500   -1.1290    0.0000 C.3     1  UNL1       -0.0196
     18 C           3.4617   -0.4758    0.0000 C.3     1  UNL1        0.0970
     19 C           7.6017   -1.7790    0.0000 C.3     1  UNL1       -0.0461
     20 C           3.7332   -1.3784    0.0000 C.3     1  UNL1        0.0857
     21 C           8.1456   -0.2164    0.0000 C.2     1  UNL1       -0.0730
     22 C           3.8420    0.8543    0.0000 C.2     1  UNL1        0.3166
     23 C           5.6889    1.5117    0.0000 C.2     1  UNL1        0.3088
     24 C           3.1234    0.3916    0.0000 C.3     1  UNL1       -0.0465
     25 C           8.9492    0.3788    0.0000 C.2     1  UNL1       -0.0992
     26 H           5.7800   -1.6407    0.0000 H       1  UNL1        0.0345
     27 H           4.5891    0.7246    0.0000 H       1  UNL1        0.0359
     28 H           6.3157    0.8148    0.0000 H       1  UNL1        0.0423
     29 H           7.2400   -1.4849    0.0000 H       1  UNL1        0.0277
     30 H           6.6220   -1.0980    0.0000 H       1  UNL1        0.0277
     31 H           7.0374    0.7952    0.0000 H       1  UNL1        0.0316
     32 H           7.8058    0.7097    0.0000 H       1  UNL1        0.0316
     33 H           6.7600   -2.2937    0.0000 H       1  UNL1        0.0270
     34 H           6.1046   -1.8836    0.0000 H       1  UNL1        0.0270
     35 H           5.1737   -1.9250    0.0000 H       1  UNL1        0.0330
     36 H           4.4096   -2.1659    0.0000 H       1  UNL1        0.0330
     37 H           9.0527   -1.4085    0.0000 H       1  UNL1        0.0346
     38 H           3.0368   -0.9273    0.0000 H       1  UNL1        0.0630
     39 H           8.1272   -2.1081    0.0000 H       1  UNL1        0.0271
     40 H           7.3979   -2.3645    0.0000 H       1  UNL1        0.0271
     41 H           3.9118   -1.9721    0.0000 H       1  UNL1        0.0621
     42 H           3.0111   -0.2181    0.0000 H       1  UNL1        0.0241
     43 H           2.5136    0.5039    0.0000 H       1  UNL1        0.0241
     44 H           3.2357    1.0013    0.0000 H       1  UNL1        0.0241
     45 H           8.8788    0.9947    0.0000 H       1  UNL1        0.0534
     46 H           9.5179    0.1318    0.0000 H       1  UNL1        0.0534
     47 H           2.0635   -0.6978    0.0000 H       1  UNL1        0.2099
     48 H           3.2267   -2.7005    0.0000 H       1  UNL1        0.2099
     49 H           6.4578    2.7005    0.0000 H       1  UNL1        0.2951
@<TRIPOS>BOND
     1     8     1    1
     2     1    22    1
     3    18     2    1
     4     2    47    1
     5    20     3    1
     6     3    48    1
     7     4    22    2
     8     5    23    1
     9     5    49    1
    10     6    23    2
    11     7     9    1
    12     7    11    1
    13     7    13    1
    14     7    14    1
    15     8     9    1
    16     8    10    1
    17     8    16    1
    18     9    15    1
    19     9    26    1
    20    10    11    1
    21    10    12    1
    22    10    27    1
    23    11    23    1
    24    11    28    1
    25    12    18    1
    26    12    22    1
    27    12    24    1
    28    13    17    1
    29    13    29    1
    30    13    30    1
    31    14    21    1
    32    14    31    1
    33    14    32    1
    34    15    19    1
    35    15    33    1
    36    15    34    1
    37    16    20    1
    38    16    35    1
    39    16    36    1
    40    17    19    1
    41    17    21    1
    42    17    37    1
    43    18    20    1
    44    18    38    1
    45    19    39    1
    46    19    40    1
    47    20    41    1
    48    21    25    2
    49    24    42    1
    50    24    43    1
    51    24    44    1
    52    25    45    1
    53    25    46    1
