@<TRIPOS>MOLECULE
IMPHY012131
 14 13 0 0 0
SMALL
GASTEIGER

@<TRIPOS>ATOM
      1 O           2.8660   -0.7500    0.0000 O.2     1  UNL1       -0.2930
      2 C           3.7320    0.7500    0.0000 C.2     1  UNL1       -0.0237
      3 C           2.8660    0.2500    0.0000 C.2     1  UNL1        0.1527
      4 C           4.5981    0.2500    0.0000 C.2     1  UNL1       -0.0838
      5 C           2.0000    0.7500    0.0000 C.3     1  UNL1       -0.0020
      6 C           5.4641    0.7500    0.0000 C.3     1  UNL1       -0.0464
      7 H           3.7320    1.3700    0.0000 H       1  UNL1        0.0649
      8 H           4.5981   -0.3700    0.0000 H       1  UNL1        0.0570
      9 H           2.3100    1.2869    0.0000 H       1  UNL1        0.0309
     10 H           1.4631    1.0600    0.0000 H       1  UNL1        0.0309
     11 H           1.6900    0.2131    0.0000 H       1  UNL1        0.0309
     12 H           5.7741    0.2131    0.0000 H       1  UNL1        0.0272
     13 H           6.0010    1.0600    0.0000 H       1  UNL1        0.0272
     14 H           5.1541    1.2869    0.0000 H       1  UNL1        0.0272
@<TRIPOS>BOND
     1     1     3    2
     2     2     3    1
     3     2     4    2
     4     2     7    1
     5     3     5    1
     6     4     6    1
     7     4     8    1
     8     5     9    1
     9     5    10    1
    10     5    11    1
    11     6    12    1
    12     6    13    1
    13     6    14    1
