@<TRIPOS>MOLECULE
IMPHY016068
 50 49 0 0 0
SMALL
GASTEIGER

@<TRIPOS>ATOM
      1 O           4.5981    0.4400    0.0000 O.3     1  UNL1       -0.4605
      2 O           3.7320   -1.0600    0.0000 O.2     1  UNL1       -0.2509
      3 C           8.9282   -0.0600    0.0000 C.3     1  UNL1       -0.0308
      4 C          11.5263    0.4400    0.0000 C.3     1  UNL1       -0.0286
      5 C           8.0622    0.4400    0.0000 C.3     1  UNL1       -0.0285
      6 C          10.6603   -0.0600    0.0000 C.2     1  UNL1       -0.0762
      7 C           9.7942    0.4400    0.0000 C.2     1  UNL1       -0.0847
      8 C          12.3923   -0.0600    0.0000 C.3     1  UNL1       -0.0308
      9 C           7.1962   -0.0600    0.0000 C.2     1  UNL1       -0.0731
     10 C          10.6603   -1.0600    0.0000 C.3     1  UNL1       -0.0438
     11 C          13.2583    0.4400    0.0000 C.2     1  UNL1       -0.0850
     12 C           6.3301    0.4400    0.0000 C.2     1  UNL1       -0.0480
     13 C           7.1962   -1.0600    0.0000 C.3     1  UNL1       -0.0437
     14 C          14.1244   -0.0600    0.0000 C.2     1  UNL1       -0.0796
     15 C           5.4641   -0.0600    0.0000 C.3     1  UNL1        0.1109
     16 C          14.9904    0.4400    0.0000 C.3     1  UNL1       -0.0440
     17 C          14.1244   -1.0600    0.0000 C.3     1  UNL1       -0.0440
     18 C           3.7320   -0.0600    0.0000 C.2     1  UNL1        0.3071
     19 C           2.8660    0.4400    0.0000 C.3     1  UNL1        0.0421
     20 C           2.0000   -0.0600    0.0000 C.3     1  UNL1       -0.0552
     21 H           8.5297   -0.5349    0.0000 H       1  UNL1        0.0310
     22 H           9.3267   -0.5349    0.0000 H       1  UNL1        0.0310
     23 H          11.9248    0.9149    0.0000 H       1  UNL1        0.0313
     24 H          11.1278    0.9149    0.0000 H       1  UNL1        0.0313
     25 H           8.4607    0.9149    0.0000 H       1  UNL1        0.0313
     26 H           7.6636    0.9149    0.0000 H       1  UNL1        0.0313
     27 H           9.7942    1.0600    0.0000 H       1  UNL1        0.0572
     28 H          11.9938   -0.5349    0.0000 H       1  UNL1        0.0310
     29 H          12.7908   -0.5349    0.0000 H       1  UNL1        0.0310
     30 H          10.0403   -1.0600    0.0000 H       1  UNL1        0.0274
     31 H          10.6603   -1.6800    0.0000 H       1  UNL1        0.0274
     32 H          11.2803   -1.0600    0.0000 H       1  UNL1        0.0274
     33 H          13.2583    1.0600    0.0000 H       1  UNL1        0.0572
     34 H           6.3301    1.0600    0.0000 H       1  UNL1        0.0605
     35 H           6.5762   -1.0600    0.0000 H       1  UNL1        0.0274
     36 H           7.1962   -1.6800    0.0000 H       1  UNL1        0.0274
     37 H           7.8162   -1.0600    0.0000 H       1  UNL1        0.0274
     38 H           5.0656   -0.5349    0.0000 H       1  UNL1        0.0743
     39 H           5.8626   -0.5349    0.0000 H       1  UNL1        0.0743
     40 H          15.3004   -0.0969    0.0000 H       1  UNL1        0.0274
     41 H          15.5273    0.7500    0.0000 H       1  UNL1        0.0274
     42 H          14.6804    0.9769    0.0000 H       1  UNL1        0.0274
     43 H          13.5044   -1.0600    0.0000 H       1  UNL1        0.0274
     44 H          14.1244   -1.6800    0.0000 H       1  UNL1        0.0274
     45 H          14.7444   -1.0600    0.0000 H       1  UNL1        0.0274
     46 H           3.2646    0.9149    0.0000 H       1  UNL1        0.0375
     47 H           2.4675    0.9149    0.0000 H       1  UNL1        0.0375
     48 H           1.6900    0.4769    0.0000 H       1  UNL1        0.0235
     49 H           1.4631   -0.3700    0.0000 H       1  UNL1        0.0235
     50 H           2.3100   -0.5969    0.0000 H       1  UNL1        0.0235
@<TRIPOS>BOND
     1     1    15    1
     2     1    18    1
     3     2    18    2
     4     3     5    1
     5     3     7    1
     6     3    21    1
     7     3    22    1
     8     4     6    1
     9     4     8    1
    10     4    23    1
    11     4    24    1
    12     5     9    1
    13     5    25    1
    14     5    26    1
    15     6     7    2
    16     6    10    1
    17     7    27    1
    18     8    11    1
    19     8    28    1
    20     8    29    1
    21     9    12    2
    22     9    13    1
    23    10    30    1
    24    10    31    1
    25    10    32    1
    26    11    14    2
    27    11    33    1
    28    12    15    1
    29    12    34    1
    30    13    35    1
    31    13    36    1
    32    13    37    1
    33    14    16    1
    34    14    17    1
    35    15    38    1
    36    15    39    1
    37    16    40    1
    38    16    41    1
    39    16    42    1
    40    17    43    1
    41    17    44    1
    42    17    45    1
    43    18    19    1
    44    19    20    1
    45    19    46    1
    46    19    47    1
    47    20    48    1
    48    20    49    1
    49    20    50    1
