@<TRIPOS>MOLECULE
IMPHY015271
 30 29 0 0 0
SMALL
GASTEIGER

@<TRIPOS>ATOM
      1 O           2.5369    0.2500    0.0000 O.3     1  UNL1       -0.3947
      2 C           5.1350    0.7500    0.0000 C.3     1  UNL1       -0.0484
      3 C           4.2690    0.2500    0.0000 C.3     1  UNL1       -0.0206
      4 C           6.0010    0.2500    0.0000 C.3     1  UNL1       -0.0527
      5 C           6.8671    0.7500    0.0000 C.3     1  UNL1       -0.0531
      6 C           7.7331    0.2500    0.0000 C.3     1  UNL1       -0.0533
      7 C           3.4030    0.7500    0.0000 C.3     1  UNL1        0.0468
      8 C           4.2690   -0.7500    0.0000 C.3     1  UNL1       -0.0603
      9 C           8.5991    0.7500    0.0000 C.3     1  UNL1       -0.0559
     10 C           9.4651    0.2500    0.0000 C.3     1  UNL1       -0.0653
     11 H           5.5335    1.2250    0.0000 H       1  UNL1        0.0269
     12 H           4.7365    1.2250    0.0000 H       1  UNL1        0.0269
     13 H           4.8059   -0.0600    0.0000 H       1  UNL1        0.0320
     14 H           5.6025   -0.2249    0.0000 H       1  UNL1        0.0265
     15 H           6.3996   -0.2249    0.0000 H       1  UNL1        0.0265
     16 H           7.2656    1.2250    0.0000 H       1  UNL1        0.0265
     17 H           6.4685    1.2250    0.0000 H       1  UNL1        0.0265
     18 H           7.3346   -0.2249    0.0000 H       1  UNL1        0.0265
     19 H           8.1316   -0.2249    0.0000 H       1  UNL1        0.0265
     20 H           3.8015    1.2250    0.0000 H       1  UNL1        0.0560
     21 H           3.0044    1.2250    0.0000 H       1  UNL1        0.0560
     22 H           3.6490   -0.7500    0.0000 H       1  UNL1        0.0233
     23 H           4.2690   -1.3700    0.0000 H       1  UNL1        0.0233
     24 H           4.8890   -0.7500    0.0000 H       1  UNL1        0.0233
     25 H           8.9976    1.2250    0.0000 H       1  UNL1        0.0263
     26 H           8.2006    1.2250    0.0000 H       1  UNL1        0.0263
     27 H           9.1551   -0.2869    0.0000 H       1  UNL1        0.0230
     28 H          10.0021   -0.0600    0.0000 H       1  UNL1        0.0230
     29 H           9.7751    0.7869    0.0000 H       1  UNL1        0.0230
     30 H           2.0000    0.5600    0.0000 H       1  UNL1        0.2094
@<TRIPOS>BOND
     1     1     7    1
     2     1    30    1
     3     2     3    1
     4     2     4    1
     5     2    11    1
     6     2    12    1
     7     3     7    1
     8     3     8    1
     9     3    13    1
    10     4     5    1
    11     4    14    1
    12     4    15    1
    13     5     6    1
    14     5    16    1
    15     5    17    1
    16     6     9    1
    17     6    18    1
    18     6    19    1
    19     7    20    1
    20     7    21    1
    21     8    22    1
    22     8    23    1
    23     8    24    1
    24     9    10    1
    25     9    25    1
    26     9    26    1
    27    10    27    1
    28    10    28    1
    29    10    29    1
