@<TRIPOS>MOLECULE
IMPHY004227
 44 46 0 0 0
SMALL
GASTEIGER

@<TRIPOS>ATOM
      1 O           5.4983   -2.3523    0.0000 O.3     1  UNL1       -0.4822
      2 O           3.7282   -0.2935    0.0000 O.3     1  UNL1       -0.4538
      3 O           7.2422    0.7238    0.0000 O.2     1  UNL1       -0.4218
      4 O           4.6000    1.2031    0.0000 O.2     1  UNL1       -0.2453
      5 O           8.1364    2.2516    0.0000 O.2     1  UNL1       -0.2452
      6 C           4.5923   -1.8385    0.0000 C.3     1  UNL1        0.1419
      7 C           4.5923   -0.7969    0.0000 C.3     1  UNL1        0.1464
      8 C           5.4983   -0.2830    0.0000 C.3     1  UNL1        0.0204
      9 C           6.3923   -0.8177    0.0000 C.ar    1  UNL1        0.0408
     10 C           6.3923   -1.8177    0.0000 C.ar    1  UNL1        0.1283
     11 C           3.5923   -1.8424    0.0000 C.3     1  UNL1       -0.0216
     12 C           4.0956   -2.7064    0.0000 C.3     1  UNL1       -0.0216
     13 C           7.2583   -0.3177    0.0000 C.ar    1  UNL1        0.1458
     14 C           7.2583   -2.3177    0.0000 C.ar    1  UNL1       -0.0188
     15 C           8.1243   -0.8177    0.0000 C.ar    1  UNL1        0.0181
     16 C           8.1243   -1.8177    0.0000 C.ar    1  UNL1       -0.0476
     17 C           3.7320    0.7065    0.0000 C.2     1  UNL1        0.3350
     18 C           9.0343   -0.3108    0.0000 C.ar    1  UNL1       -0.0443
     19 C           8.1403    1.2516    0.0000 C.ar    1  UNL1        0.3372
     20 C           9.0424    0.7308    0.0000 C.ar    1  UNL1        0.0236
     21 C           2.8680    1.2098    0.0000 C.2     1  UNL1        0.0293
     22 C           2.0000    0.7131    0.0000 C.3     1  UNL1       -0.0333
     23 C           2.8718    2.2098    0.0000 C.2     1  UNL1       -0.0774
     24 C           3.7398    2.7064    0.0000 C.3     1  UNL1       -0.0461
     25 H           4.0547   -1.1058    0.0000 H       1  UNL1        0.0778
     26 H           5.9029    0.1868    0.0000 H       1  UNL1        0.0353
     27 H           5.1047    0.1960    0.0000 H       1  UNL1        0.0353
     28 H           3.5899   -1.2224    0.0000 H       1  UNL1        0.0269
     29 H           2.9723   -1.8447    0.0000 H       1  UNL1        0.0269
     30 H           3.5947   -2.4623    0.0000 H       1  UNL1        0.0269
     31 H           3.5575   -2.3985    0.0000 H       1  UNL1        0.0269
     32 H           3.7877   -3.2446    0.0000 H       1  UNL1        0.0269
     33 H           4.6337   -3.0144    0.0000 H       1  UNL1        0.0269
     34 H           7.2583   -2.9377    0.0000 H       1  UNL1        0.0654
     35 H           8.6613   -2.1277    0.0000 H       1  UNL1        0.0626
     36 H           9.5676   -0.6270    0.0000 H       1  UNL1        0.0627
     37 H           9.5805    1.0387    0.0000 H       1  UNL1        0.0689
     38 H           1.6921    1.2513    0.0000 H       1  UNL1        0.0280
     39 H           1.4619    0.4052    0.0000 H       1  UNL1        0.0280
     40 H           2.3079    0.1750    0.0000 H       1  UNL1        0.0280
     41 H           2.3361    2.5218    0.0000 H       1  UNL1        0.0574
     42 H           4.0477    2.1683    0.0000 H       1  UNL1        0.0272
     43 H           4.2779    3.0144    0.0000 H       1  UNL1        0.0272
     44 H           3.4318    3.2446    0.0000 H       1  UNL1        0.0272
@<TRIPOS>BOND
     1     1     6    1
     2     1    10    1
     3     7     2    1
     4     2    17    1
     5     3    13   ar
     6     3    19   ar
     7     4    17    2
     8     5    19    2
     9     6     7    1
    10     6    11    1
    11     6    12    1
    12     7     8    1
    13     7    25    1
    14     8     9    1
    15     8    26    1
    16     8    27    1
    17     9    10   ar
    18     9    13   ar
    19    10    14   ar
    20    11    28    1
    21    11    29    1
    22    11    30    1
    23    12    31    1
    24    12    32    1
    25    12    33    1
    26    13    15   ar
    27    14    16   ar
    28    14    34    1
    29    15    16   ar
    30    15    18   ar
    31    16    35    1
    32    17    21    1
    33    18    20   ar
    34    18    36    1
    35    19    20   ar
    36    20    37    1
    37    21    22    1
    38    21    23    2
    39    22    38    1
    40    22    39    1
    41    22    40    1
    42    23    24    1
    43    23    41    1
    44    24    42    1
    45    24    43    1
    46    24    44    1
