@<TRIPOS>MOLECULE
IMPHY005518
 25 26 0 0 0
SMALL
GASTEIGER

@<TRIPOS>ATOM
      1 O           3.4782   -1.9127    0.0000 O.2     1  UNL1       -0.4660
      2 O           6.4167   -0.1176    0.0000 O.2     1  UNL1       -0.2908
      3 N           4.4487    0.5818    0.0000 N.ar    1  UNL1       -0.3371
      4 C           4.4487   -0.4182    0.0000 C.3     1  UNL1        0.0812
      5 C           5.2577    1.1696    0.0000 C.ar    1  UNL1        0.0849
      6 C           3.5827   -0.9182    0.0000 C.ar    1  UNL1        0.1244
      7 C           3.6397    1.1696    0.0000 C.ar    1  UNL1        0.0057
      8 C           4.9487    2.1206    0.0000 C.ar    1  UNL1       -0.0334
      9 C           3.9487    2.1206    0.0000 C.ar    1  UNL1       -0.0435
     10 C           6.2088    0.8606    0.0000 C.2     1  UNL1        0.1763
     11 C           2.6691   -0.5115    0.0000 C.ar    1  UNL1       -0.0189
     12 C           2.0000   -1.2546    0.0000 C.ar    1  UNL1       -0.0236
     13 C           6.9519    1.5297    0.0000 C.3     1  UNL1        0.0001
     14 C           2.5000   -2.1206    0.0000 C.ar    1  UNL1        0.0922
     15 H           4.6608   -1.0008    0.0000 H       1  UNL1        0.0572
     16 H           5.0593   -0.3105    0.0000 H       1  UNL1        0.0572
     17 H           3.0500    0.9780    0.0000 H       1  UNL1        0.0809
     18 H           5.3131    2.6222    0.0000 H       1  UNL1        0.0640
     19 H           3.5843    2.6222    0.0000 H       1  UNL1        0.0633
     20 H           2.5402    0.0950    0.0000 H       1  UNL1        0.0652
     21 H           1.3834   -1.1898    0.0000 H       1  UNL1        0.0649
     22 H           7.3668    1.0689    0.0000 H       1  UNL1        0.0310
     23 H           7.4127    1.9446    0.0000 H       1  UNL1        0.0310
     24 H           6.5371    1.9904    0.0000 H       1  UNL1        0.0310
     25 H           2.2478   -2.6870    0.0000 H       1  UNL1        0.1029
@<TRIPOS>BOND
     1     1     6   ar
     2     1    14   ar
     3     2    10    2
     4     3     4    1
     5     3     5   ar
     6     3     7   ar
     7     4     6    1
     8     4    15    1
     9     4    16    1
    10     5     8   ar
    11     5    10    1
    12     6    11   ar
    13     7     9   ar
    14     7    17    1
    15     8     9   ar
    16     8    18    1
    17     9    19    1
    18    10    13    1
    19    11    12   ar
    20    11    20    1
    21    12    14   ar
    22    12    21    1
    23    13    22    1
    24    13    23    1
    25    13    24    1
    26    14    25    1
