@<TRIPOS>MOLECULE
IMPHY016945
 31 31 0 0 0
SMALL
GASTEIGER

@<TRIPOS>ATOM
      1 O           3.7320   -0.0600    0.0000 O.3     1  UNL1       -0.4597
      2 O           2.8660    1.4400    0.0000 O.2     1  UNL1       -0.2505
      3 C           2.8660   -1.5600    0.0000 C.ar    1  UNL1       -0.0103
      4 C           2.8660   -0.5600    0.0000 C.3     1  UNL1        0.1175
      5 C           4.5981    1.4400    0.0000 C.3     1  UNL1        0.0631
      6 C           6.3301    2.4400    0.0000 C.3     1  UNL1       -0.0376
      7 C           4.5981    2.4400    0.0000 C.2     1  UNL1       -0.0774
      8 C           2.0000   -2.0600    0.0000 C.ar    1  UNL1       -0.0554
      9 C           3.7320   -2.0600    0.0000 C.ar    1  UNL1       -0.0554
     10 C           5.4641    2.9400    0.0000 C.2     1  UNL1       -0.0877
     11 C           3.7320    0.9400    0.0000 C.2     1  UNL1        0.3112
     12 C           2.0000   -3.0600    0.0000 C.ar    1  UNL1       -0.0614
     13 C           3.7320   -3.0600    0.0000 C.ar    1  UNL1       -0.0614
     14 C           7.1962    2.9400    0.0000 C.3     1  UNL1       -0.0618
     15 C           2.8660   -3.5600    0.0000 C.ar    1  UNL1       -0.0617
     16 H           2.6540    0.0226    0.0000 H       1  UNL1        0.0749
     17 H           2.2554   -0.6677    0.0000 H       1  UNL1        0.0749
     18 H           4.8101    0.8574    0.0000 H       1  UNL1        0.0420
     19 H           5.2087    1.5477    0.0000 H       1  UNL1        0.0420
     20 H           5.9316    1.9650    0.0000 H       1  UNL1        0.0305
     21 H           6.7287    1.9650    0.0000 H       1  UNL1        0.0305
     22 H           4.0611    2.7500    0.0000 H       1  UNL1        0.0574
     23 H           1.4631   -1.7500    0.0000 H       1  UNL1        0.0621
     24 H           4.2690   -1.7500    0.0000 H       1  UNL1        0.0621
     25 H           5.4641    3.5600    0.0000 H       1  UNL1        0.0569
     26 H           1.4631   -3.3700    0.0000 H       1  UNL1        0.0618
     27 H           4.2690   -3.3700    0.0000 H       1  UNL1        0.0618
     28 H           7.5062    2.4031    0.0000 H       1  UNL1        0.0233
     29 H           7.7331    3.2500    0.0000 H       1  UNL1        0.0233
     30 H           6.8862    3.4769    0.0000 H       1  UNL1        0.0233
     31 H           2.8660   -4.1800    0.0000 H       1  UNL1        0.0618
@<TRIPOS>BOND
     1     1     4    1
     2     1    11    1
     3     2    11    2
     4     3     4    1
     5     3     8   ar
     6     3     9   ar
     7     4    16    1
     8     4    17    1
     9     5     7    1
    10     5    11    1
    11     5    18    1
    12     5    19    1
    13     6    10    1
    14     6    14    1
    15     6    20    1
    16     6    21    1
    17     7    10    2
    18     7    22    1
    19     8    12   ar
    20     8    23    1
    21     9    13   ar
    22     9    24    1
    23    10    25    1
    24    12    15   ar
    25    12    26    1
    26    13    15   ar
    27    13    27    1
    28    14    28    1
    29    14    29    1
    30    14    30    1
    31    15    31    1
