@<TRIPOS>MOLECULE
IMPHY012029
 46 49 0 0 0
SMALL
GASTEIGER

@<TRIPOS>ATOM
      1 O           2.5357   -1.7532    0.0000 O.3     1  UNL1       -0.3918
      2 C           7.0628   -0.2009    0.0000 C.3     1  UNL1       -0.0349
      3 C           6.1968    0.2991    0.0000 C.3     1  UNL1       -0.0349
      4 C           7.9288    0.2991    0.0000 C.3     1  UNL1       -0.0351
      5 C           5.2868   -0.2078    0.0000 C.3     1  UNL1       -0.0350
      6 C           7.9288    1.2991    0.0000 C.3     1  UNL1       -0.0379
      7 C           5.2787   -1.2494    0.0000 C.3     1  UNL1       -0.0356
      8 C           6.1968    1.2991    0.0000 C.3     1  UNL1       -0.0494
      9 C           7.0789   -1.2424    0.0000 C.3     1  UNL1       -0.0494
     10 C           7.0628    1.7991    0.0000 C.3     1  UNL1       -0.0497
     11 C           6.1808   -1.7702    0.0000 C.3     1  UNL1       -0.0496
     12 C           8.8750   -0.0056    0.0000 C.3     1  UNL1       -0.0497
     13 C           8.8750    1.6038    0.0000 C.3     1  UNL1       -0.0499
     14 C           4.3599    0.3563    0.0000 C.3     1  UNL1       -0.0474
     15 C           9.4586    0.7991    0.0000 C.3     1  UNL1       -0.0525
     16 C           4.3433   -1.7991    0.0000 C.3     1  UNL1       -0.0238
     17 C           3.4120   -0.1716    0.0000 C.3     1  UNL1       -0.0266
     18 C           3.4037   -1.2566    0.0000 C.3     1  UNL1        0.0555
     19 H           7.6021   -0.5068    0.0000 H       1  UNL1        0.0306
     20 H           6.7337    0.6091    0.0000 H       1  UNL1        0.0306
     21 H           7.9944   -0.3174    0.0000 H       1  UNL1        0.0306
     22 H           5.2987    0.4121    0.0000 H       1  UNL1        0.0306
     23 H           7.9944    1.9156    0.0000 H       1  UNL1        0.0304
     24 H           5.2811   -1.8694    0.0000 H       1  UNL1        0.0304
     25 H           5.9847    1.8817    0.0000 H       1  UNL1        0.0268
     26 H           5.5862    1.1914    0.0000 H       1  UNL1        0.0268
     27 H           7.2969   -1.8228    0.0000 H       1  UNL1        0.0268
     28 H           7.6880   -1.1269    0.0000 H       1  UNL1        0.0268
     29 H           7.4613    2.2740    0.0000 H       1  UNL1        0.0268
     30 H           6.6643    2.2740    0.0000 H       1  UNL1        0.0268
     31 H           5.7835   -2.2462    0.0000 H       1  UNL1        0.0268
     32 H           6.5818   -2.2431    0.0000 H       1  UNL1        0.0268
     33 H           8.6240   -0.5726    0.0000 H       1  UNL1        0.0268
     34 H           9.4124   -0.3149    0.0000 H       1  UNL1        0.0268
     35 H           9.4124    1.9130    0.0000 H       1  UNL1        0.0268
     36 H           8.6240    2.1707    0.0000 H       1  UNL1        0.0268
     37 H           4.7681    0.8230    0.0000 H       1  UNL1        0.0269
     38 H           3.9700    0.8384    0.0000 H       1  UNL1        0.0269
     39 H           9.9195    0.3844    0.0000 H       1  UNL1        0.0265
     40 H           9.9195    1.2138    0.0000 H       1  UNL1        0.0265
     41 H           3.9460   -2.2751    0.0000 H       1  UNL1        0.0293
     42 H           4.7443   -2.2720    0.0000 H       1  UNL1        0.0293
     43 H           3.2075    0.4137    0.0000 H       1  UNL1        0.0290
     44 H           2.8004   -0.2730    0.0000 H       1  UNL1        0.0290
     45 H           3.4025   -1.8766    0.0000 H       1  UNL1        0.0593
     46 H           2.0000   -1.4412    0.0000 H       1  UNL1        0.2098
@<TRIPOS>BOND
     1     1    18    1
     2     1    46    1
     3     2     3    1
     4     2     4    1
     5     2     9    1
     6     2    19    1
     7     3     5    1
     8     3     8    1
     9     3    20    1
    10     4     6    1
    11     4    12    1
    12     4    21    1
    13     5     7    1
    14     5    14    1
    15     5    22    1
    16     6    10    1
    17     6    13    1
    18     6    23    1
    19     7    11    1
    20     7    16    1
    21     7    24    1
    22     8    10    1
    23     8    25    1
    24     8    26    1
    25     9    11    1
    26     9    27    1
    27     9    28    1
    28    10    29    1
    29    10    30    1
    30    11    31    1
    31    11    32    1
    32    12    15    1
    33    12    33    1
    34    12    34    1
    35    13    15    1
    36    13    35    1
    37    13    36    1
    38    14    17    1
    39    14    37    1
    40    14    38    1
    41    15    39    1
    42    15    40    1
    43    16    18    1
    44    16    41    1
    45    16    42    1
    46    17    18    1
    47    17    43    1
    48    17    44    1
    49    18    45    1
