@<TRIPOS>MOLECULE
IMPHY000653
 34 36 0 0 0
SMALL
GASTEIGER

@<TRIPOS>ATOM
      1 O           6.4144    1.9377    0.0000 O.3     1  UNL1       -0.4895
      2 O           4.6660   -2.0969    0.0000 O.2     1  UNL1       -0.2864
      3 O           6.4144   -2.1315    0.0000 O.3     1  UNL1       -0.5059
      4 O           2.9176    1.9377    0.0000 O.3     1  UNL1       -0.5047
      5 O           8.1962    0.9273    0.0000 O.3     1  UNL1       -0.5032
      6 N           4.6660    0.9031    0.0000 N.ar    1  UNL1       -0.3369
      7 C           5.5321    0.4031    0.0000 C.ar    1  UNL1        0.1025
      8 C           3.8000    0.4031    0.0000 C.ar    1  UNL1        0.0950
      9 C           5.5321   -0.5969    0.0000 C.ar    1  UNL1        0.0909
     10 C           3.8000   -0.5969    0.0000 C.ar    1  UNL1        0.0495
     11 C           4.6660   -1.0969    0.0000 C.ar    1  UNL1        0.2008
     12 C           6.4260    0.9378    0.0000 C.ar    1  UNL1        0.1857
     13 C           6.4260   -1.1316    0.0000 C.ar    1  UNL1        0.1334
     14 C           2.9061    0.9378    0.0000 C.ar    1  UNL1        0.1409
     15 C           4.6660    1.9031    0.0000 C.3     1  UNL1        0.0126
     16 C           2.9061   -1.1316    0.0000 C.ar    1  UNL1       -0.0487
     17 C           7.3321    0.4239    0.0000 C.ar    1  UNL1        0.1641
     18 C           7.3321   -0.6177    0.0000 C.ar    1  UNL1        0.0258
     19 C           2.0000    0.4239    0.0000 C.ar    1  UNL1       -0.0181
     20 C           2.0000   -0.6177    0.0000 C.ar    1  UNL1       -0.0575
     21 C           7.2746    2.4477    0.0000 C.3     1  UNL1        0.0791
     22 H           5.2860    1.9031    0.0000 H       1  UNL1        0.0456
     23 H           4.6660    2.5231    0.0000 H       1  UNL1        0.0456
     24 H           4.0460    1.9031    0.0000 H       1  UNL1        0.0456
     25 H           2.9132   -1.7515    0.0000 H       1  UNL1        0.0625
     26 H           7.8678   -0.9298    0.0000 H       1  UNL1        0.0692
     27 H           1.4643    0.7360    0.0000 H       1  UNL1        0.0655
     28 H           1.4643   -0.9298    0.0000 H       1  UNL1        0.0619
     29 H           6.9478   -2.4477    0.0000 H       1  UNL1        0.2922
     30 H           2.3843    2.2539    0.0000 H       1  UNL1        0.2922
     31 H           8.7343    0.6193    0.0000 H       1  UNL1        0.2923
     32 H           7.5908    1.9144    0.0000 H       1  UNL1        0.0660
     33 H           7.8079    2.7639    0.0000 H       1  UNL1        0.0660
     34 H           6.9584    2.9810    0.0000 H       1  UNL1        0.0660
@<TRIPOS>BOND
     1     1    12    1
     2     1    21    1
     3     2    11    2
     4     3    13    1
     5     3    29    1
     6     4    14    1
     7     4    30    1
     8     5    17    1
     9     5    31    1
    10     6     7   ar
    11     6     8   ar
    12     6    15    1
    13     7     9   ar
    14     7    12   ar
    15     8    10   ar
    16     8    14   ar
    17     9    11   ar
    18     9    13   ar
    19    10    11   ar
    20    10    16   ar
    21    12    17   ar
    22    13    18   ar
    23    14    19   ar
    24    15    22    1
    25    15    23    1
    26    15    24    1
    27    16    20   ar
    28    16    25    1
    29    17    18   ar
    30    18    26    1
    31    19    20   ar
    32    19    27    1
    33    20    28    1
    34    21    32    1
    35    21    33    1
    36    21    34    1
