@<TRIPOS>MOLECULE
IMPHY010335
 25 25 0 0 0
SMALL
GASTEIGER

@<TRIPOS>ATOM
      1 C           0.7765   -3.8978    0.0000 C.2     1  UNL1        0.0068
      2 C           1.0353   -4.8637    0.0000 C.2     1  UNL1        0.0859
      3 C           2.4495   -3.4495    0.0000 C.3     1  UNL1        0.1441
      4 C           1.9319   -1.5176    0.0000 C.1     1  UNL1        0.1377
      5 C          -1.3660    1.3660    0.0000 C.3     1  UNL1        0.2142
      6 C           1.4836   -3.1907    0.0000 C.2     1  UNL1        0.0335
      7 C           1.2247   -2.2247    0.0000 C.2     1  UNL1        0.2060
      8 C          -0.8660    0.5000    0.0000 C.3     1  UNL1        0.1846
      9 C           0.3282   -5.5708    0.0000 C.2     1  UNL1        0.3880
     10 C           3.1566   -2.7424    0.0000 C.2     1  UNL1        0.3693
     11 C          -1.7321    0.0000    0.0000 C.3     1  UNL1        0.2145
     12 C          -1.7321   -1.0000    0.0000 C.3     1  UNL1        0.2211
     13 C          -0.8660   -1.5000    0.0000 C.3     1  UNL1        0.2542
     14 C           0.0000   -1.0000    0.0000 C.3     1  UNL1        0.3223
     15 N           2.6390   -0.8105    0.0000 N.1     1  UNL1       -0.1877
     16 O          -2.3660    1.3660    0.0000 O.3     1  UNL1       -0.2176
     17 O          -0.6378   -5.3120    0.0000 O.co2   1  UNL1       -0.2405
     18 O           0.5870   -6.5367    0.0000 O.co2   1  UNL1       -0.2405
     19 O           2.8978   -1.7765    0.0000 O.co2   1  UNL1       -0.2453
     20 O           4.1225   -3.0012    0.0000 O.co2   1  UNL1       -0.2453
     21 O          -2.7321    0.0000    0.0000 O.3     1  UNL1       -0.2176
     22 O          -2.2321   -1.8660    0.0000 O.3     1  UNL1       -0.2173
     23 O          -0.3660   -2.3660    0.0000 O.3     1  UNL1       -0.2135
     24 O           0.2588   -1.9659    0.0000 O.2     1  UNL1       -0.4412
     25 O           0.0000    0.0000    0.0000 O.3     1  UNL1       -0.3157
@<TRIPOS>BOND
     1     1     2    2
     2     1     6    1
     3     2     9    1
     4     3     6    1
     5     3    10    1
     6     4     7    1
     7     4    15    3
     8     5     8    1
     9     5    16    1
    10     6     7    2
    11     7    24    1
    12     8    11    1
    13     8    25    1
    14     9    17   ar
    15     9    18   ar
    16    10    19   ar
    17    10    20   ar
    18    11    12    1
    19    11    21    1
    20    12    13    1
    21    12    22    1
    22    13    14    1
    23    13    23    1
    24    14    24    1
    25    14    25    1
