@<TRIPOS>MOLECULE
IMPHY006070
 16 16 0 0 0
SMALL
GASTEIGER

@<TRIPOS>ATOM
      1 C           2.8660    0.2500    0.0000 C.ar    1  UNL1       -0.0256
      2 C           2.0000   -0.2500    0.0000 C.ar    1  UNL1       -0.0546
      3 C           3.7320   -0.2500    0.0000 C.ar    1  UNL1       -0.0546
      4 C           2.0000   -1.2500    0.0000 C.ar    1  UNL1       -0.0612
      5 C           3.7320   -1.2500    0.0000 C.ar    1  UNL1       -0.0612
      6 C           2.8660   -1.7500    0.0000 C.ar    1  UNL1       -0.0617
      7 C           2.8660    1.2500    0.0000 C.2     1  UNL1       -0.0617
      8 C           3.7320    1.7500    0.0000 C.2     1  UNL1       -0.0981
      9 H           1.4631    0.0600    0.0000 H       1  UNL1        0.0623
     10 H           4.2690    0.0600    0.0000 H       1  UNL1        0.0623
     11 H           1.4631   -1.5600    0.0000 H       1  UNL1        0.0618
     12 H           4.2690   -1.5600    0.0000 H       1  UNL1        0.0618
     13 H           2.8660   -2.3700    0.0000 H       1  UNL1        0.0618
     14 H           2.3291    1.5600    0.0000 H       1  UNL1        0.0618
     15 H           4.2690    1.4400    0.0000 H       1  UNL1        0.0535
     16 H           3.7320    2.3700    0.0000 H       1  UNL1        0.0535
@<TRIPOS>BOND
     1     1     2   ar
     2     1     3   ar
     3     1     7    1
     4     2     4   ar
     5     2     9    1
     6     3     5   ar
     7     3    10    1
     8     4     6   ar
     9     4    11    1
    10     5     6   ar
    11     5    12    1
    12     6    13    1
    13     7     8    2
    14     7    14    1
    15     8    15    1
    16     8    16    1
