@<TRIPOS>MOLECULE
IMPHY006510
 72 76 0 0 0
SMALL
GASTEIGER

@<TRIPOS>ATOM
      1 O           7.5265    0.9165    0.0000 O.3     1  UNL1       -0.3455
      2 O           6.3579   -1.9492    0.0000 O.3     1  UNL1       -0.4605
      3 O           8.6059    1.9861    0.0000 O.3     1  UNL1       -0.3623
      4 O           7.2399    2.6201    0.0000 O.3     1  UNL1       -0.3862
      5 O           9.8903    1.2050    0.0000 O.3     1  UNL1       -0.3834
      6 O           4.5879   -1.9250    0.0000 O.2     1  UNL1       -0.2505
      7 O          11.7250    0.2208    0.0000 O.2     1  UNL1       -0.2899
      8 C           7.2399   -0.3799    0.0000 C.3     1  UNL1        0.0435
      9 C           8.1059    0.1201    0.0000 C.3     1  UNL1        0.0356
     10 C           6.3739    0.1201    0.0000 C.3     1  UNL1       -0.0112
     11 C           9.0157   -0.3679    0.0000 C.3     1  UNL1        0.0162
     12 C           8.1059    1.1201    0.0000 C.3     1  UNL1        0.1981
     13 C           7.2560   -1.4214    0.0000 C.3     1  UNL1        0.1120
     14 C           6.3739    1.1201    0.0000 C.3     1  UNL1       -0.0084
     15 C           9.0400   -1.4000    0.0000 C.3     1  UNL1       -0.0078
     16 C           7.1265    0.2237    0.0000 C.3     1  UNL1        0.0608
     17 C           7.2399    1.6201    0.0000 C.3     1  UNL1        0.1119
     18 C           8.1542   -1.9303    0.0000 C.3     1  UNL1       -0.0079
     19 C           5.4639   -0.3868    0.0000 C.3     1  UNL1        0.0637
     20 C           9.9254    0.2056    0.0000 C.3     1  UNL1        0.1233
     21 C           8.9922    0.6318    0.0000 C.3     1  UNL1       -0.0558
     22 C           9.9757   -1.9302    0.0000 C.2     1  UNL1       -0.0654
     23 C           5.4558   -1.4284    0.0000 C.2     1  UNL1        0.3111
     24 C           5.5078    1.6201    0.0000 C.3     1  UNL1       -0.0596
     25 C           4.6037    0.1232    0.0000 C.3     1  UNL1       -0.0213
     26 C          10.8730   -0.3027    0.0000 C.2     1  UNL1        0.1848
     27 C          10.8983   -1.3778    0.0000 C.2     1  UNL1       -0.0173
     28 C           9.9876   -2.9301    0.0000 C.3     1  UNL1       -0.0431
     29 C           3.7319   -0.3667    0.0000 C.2     1  UNL1       -0.0840
     30 C           2.8718    0.1432    0.0000 C.2     1  UNL1       -0.0739
     31 C           2.8833    1.1432    0.0000 C.3     1  UNL1       -0.0258
     32 C           2.0000   -0.3467    0.0000 C.3     1  UNL1       -0.0435
     33 C           2.0231    1.6532    0.0000 C.3     1  UNL1       -0.0590
     34 C           3.7551    1.6331    0.0000 C.3     1  UNL1       -0.0590
     35 H           8.5309   -0.6160    0.0000 H       1  UNL1        0.0367
     36 H           5.6377    0.5451    0.0000 H       1  UNL1        0.0319
     37 H           7.2627   -2.2714    0.0000 H       1  UNL1        0.0740
     38 H           6.3739    1.7401    0.0000 H       1  UNL1        0.0328
     39 H           9.0502   -2.2500    0.0000 H       1  UNL1        0.0353
     40 H           6.6994    0.6731    0.0000 H       1  UNL1        0.0568
     41 H           6.5745   -0.0587    0.0000 H       1  UNL1        0.0568
     42 H           7.7768    1.9301    0.0000 H       1  UNL1        0.0650
     43 H           7.7608   -2.4095    0.0000 H       1  UNL1        0.0307
     44 H           8.5590   -2.4000    0.0000 H       1  UNL1        0.0307
     45 H           5.4722    0.2332    0.0000 H       1  UNL1        0.0419
     46 H          10.4517    0.5333    0.0000 H       1  UNL1        0.0682
     47 H           9.6120    0.6464    0.0000 H       1  UNL1        0.0236
     48 H           8.9776    1.2516    0.0000 H       1  UNL1        0.0236
     49 H           8.3723    0.6172    0.0000 H       1  UNL1        0.0236
     50 H           5.8178    2.1570    0.0000 H       1  UNL1        0.0233
     51 H           4.9709    1.9301    0.0000 H       1  UNL1        0.0233
     52 H           5.1978    1.0831    0.0000 H       1  UNL1        0.0233
     53 H           8.2959    2.5230    0.0000 H       1  UNL1        0.2128
     54 H           5.0077    0.5935    0.0000 H       1  UNL1        0.0315
     55 H           4.2107    0.6027    0.0000 H       1  UNL1        0.0315
     56 H           6.7030    2.9301    0.0000 H       1  UNL1        0.2100
     57 H          11.4413   -1.6772    0.0000 H       1  UNL1        0.0653
     58 H          10.4160    1.5337    0.0000 H       1  UNL1        0.2104
     59 H           9.3677   -2.9375    0.0000 H       1  UNL1        0.0275
     60 H           9.9951   -3.5500    0.0000 H       1  UNL1        0.0275
     61 H          10.6076   -2.9226    0.0000 H       1  UNL1        0.0275
     62 H           3.7248   -0.9867    0.0000 H       1  UNL1        0.0572
     63 H           3.4166    0.8270    0.0000 H       1  UNL1        0.0340
     64 H           1.6962    0.1938    0.0000 H       1  UNL1        0.0274
     65 H           1.4595   -0.6505    0.0000 H       1  UNL1        0.0274
     66 H           2.3038   -0.8872    0.0000 H       1  UNL1        0.0274
     67 H           2.3393    2.1865    0.0000 H       1  UNL1        0.0235
     68 H           1.4898    1.9694    0.0000 H       1  UNL1        0.0235
     69 H           1.7069    1.1198    0.0000 H       1  UNL1        0.0235
     70 H           4.0588    1.0926    0.0000 H       1  UNL1        0.0235
     71 H           4.2956    1.9369    0.0000 H       1  UNL1        0.0235
     72 H           3.4513    2.1736    0.0000 H       1  UNL1        0.0235
@<TRIPOS>BOND
     1     1    12    1
     2     1    16    1
     3     2    13    1
     4     2    23    1
     5    12     3    1
     6     3    53    1
     7    17     4    1
     8     4    56    1
     9    20     5    1
    10     5    58    1
    11     6    23    2
    12     7    26    2
    13     8     9    1
    14     8    10    1
    15     8    13    1
    16     8    16    1
    17     9    11    1
    18     9    12    1
    19     9    35    1
    20    10    14    1
    21    10    19    1
    22    10    36    1
    23    11    15    1
    24    11    20    1
    25    11    21    1
    26    12    17    1
    27    13    18    1
    28    13    37    1
    29    14    17    1
    30    14    24    1
    31    14    38    1
    32    15    18    1
    33    15    22    1
    34    15    39    1
    35    16    40    1
    36    16    41    1
    37    17    42    1
    38    18    43    1
    39    18    44    1
    40    19    23    1
    41    19    25    1
    42    19    45    1
    43    20    26    1
    44    20    46    1
    45    21    47    1
    46    21    48    1
    47    21    49    1
    48    22    27    2
    49    22    28    1
    50    24    50    1
    51    24    51    1
    52    24    52    1
    53    25    29    1
    54    25    54    1
    55    25    55    1
    56    26    27    1
    57    27    57    1
    58    28    59    1
    59    28    60    1
    60    28    61    1
    61    29    30    2
    62    29    62    1
    63    30    31    1
    64    30    32    1
    65    31    33    1
    66    31    34    1
    67    31    63    1
    68    32    64    1
    69    32    65    1
    70    32    66    1
    71    33    67    1
    72    33    68    1
    73    33    69    1
    74    34    70    1
    75    34    71    1
    76    34    72    1
