@<TRIPOS>MOLECULE
IMPHY001681
 47 49 0 0 0
SMALL
GASTEIGER

@<TRIPOS>ATOM
      1 O           4.5981    3.3822    0.0000 O.3     1  UNL1       -0.5030
      2 O           2.8660    0.3822    0.0000 O.3     1  UNL1       -0.4913
      3 O           2.8660    2.3822    0.0000 O.3     1  UNL1       -0.4885
      4 O           9.7872   -2.6923    0.0000 O.3     1  UNL1       -0.4951
      5 N           7.2641    0.8614    0.0000 N.3     1  UNL1       -0.3087
      6 C           6.3580    0.3476    0.0000 C.3     1  UNL1        0.0373
      7 C           5.4641    0.8822    0.0000 C.ar    1  UNL1       -0.0198
      8 C           5.4641    1.8822    0.0000 C.ar    1  UNL1        0.0038
      9 C           6.3580    2.4169    0.0000 C.3     1  UNL1       -0.0112
     10 C           7.2641    1.9030    0.0000 C.3     1  UNL1        0.0006
     11 C           6.3465   -0.6524    0.0000 C.3     1  UNL1       -0.0081
     12 C           4.5981    0.3822    0.0000 C.ar    1  UNL1       -0.0111
     13 C           4.5981    2.3822    0.0000 C.ar    1  UNL1        0.1658
     14 C           7.2067   -1.1624    0.0000 C.ar    1  UNL1       -0.0453
     15 C           3.7320    0.8822    0.0000 C.ar    1  UNL1        0.1655
     16 C           3.7320    1.8822    0.0000 C.ar    1  UNL1        0.2036
     17 C           7.1951   -2.1623    0.0000 C.ar    1  UNL1       -0.0551
     18 C           8.0784   -0.6724    0.0000 C.ar    1  UNL1       -0.0551
     19 C           8.0553   -2.6723    0.0000 C.ar    1  UNL1       -0.0197
     20 C           8.9386   -1.1824    0.0000 C.ar    1  UNL1       -0.0197
     21 C           8.9270   -2.1823    0.0000 C.ar    1  UNL1        0.1201
     22 C           2.8660   -0.6178    0.0000 C.3     1  UNL1        0.0790
     23 C           2.0000    1.8822    0.0000 C.3     1  UNL1        0.0791
     24 C           9.7757   -3.6922    0.0000 C.3     1  UNL1        0.0788
     25 H           6.8920    0.0324    0.0000 H       1  UNL1        0.0513
     26 H           6.7517    2.8959    0.0000 H       1  UNL1        0.0327
     27 H           5.9534    2.8867    0.0000 H       1  UNL1        0.0327
     28 H           7.8750    1.7970    0.0000 H       1  UNL1        0.0427
     29 H           7.4732    2.4867    0.0000 H       1  UNL1        0.0427
     30 H           7.7998    0.5493    0.0000 H       1  UNL1        0.1225
     31 H           5.7372   -0.5377    0.0000 H       1  UNL1        0.0332
     32 H           6.1277   -1.2325    0.0000 H       1  UNL1        0.0332
     33 H           4.5981   -0.2378    0.0000 H       1  UNL1        0.0659
     34 H           6.6546   -2.4660    0.0000 H       1  UNL1        0.0621
     35 H           8.0856   -0.0524    0.0000 H       1  UNL1        0.0621
     36 H           4.0611    3.6922    0.0000 H       1  UNL1        0.2923
     37 H           8.0481   -3.2922    0.0000 H       1  UNL1        0.0654
     38 H           9.4791   -0.8786    0.0000 H       1  UNL1        0.0654
     39 H           2.2460   -0.6178    0.0000 H       1  UNL1        0.0660
     40 H           2.8660   -1.2378    0.0000 H       1  UNL1        0.0660
     41 H           3.4860   -0.6178    0.0000 H       1  UNL1        0.0660
     42 H           1.6900    2.4192    0.0000 H       1  UNL1        0.0660
     43 H           1.4631    1.5722    0.0000 H       1  UNL1        0.0660
     44 H           2.3100    1.3453    0.0000 H       1  UNL1        0.0660
     45 H           9.1557   -3.6851    0.0000 H       1  UNL1        0.0660
     46 H           9.7685   -4.3122    0.0000 H       1  UNL1        0.0660
     47 H          10.3956   -3.6994    0.0000 H       1  UNL1        0.0660
@<TRIPOS>BOND
     1     1    13    1
     2     1    36    1
     3     2    15    1
     4     2    22    1
     5     3    16    1
     6     3    23    1
     7     4    21    1
     8     4    24    1
     9     5     6    1
    10     5    10    1
    11     5    30    1
    12     6     7    1
    13     6    11    1
    14     6    25    1
    15     7     8   ar
    16     7    12   ar
    17     8     9    1
    18     8    13   ar
    19     9    10    1
    20     9    26    1
    21     9    27    1
    22    10    28    1
    23    10    29    1
    24    11    14    1
    25    11    31    1
    26    11    32    1
    27    12    15   ar
    28    12    33    1
    29    13    16   ar
    30    14    17   ar
    31    14    18   ar
    32    15    16   ar
    33    17    19   ar
    34    17    34    1
    35    18    20   ar
    36    18    35    1
    37    19    21   ar
    38    19    37    1
    39    20    21   ar
    40    20    38    1
    41    22    39    1
    42    22    40    1
    43    22    41    1
    44    23    42    1
    45    23    43    1
    46    23    44    1
    47    24    45    1
    48    24    46    1
    49    24    47    1
