@<TRIPOS>MOLECULE
IMPHY004952
 53 57 0 0 0
SMALL
GASTEIGER

@<TRIPOS>ATOM
      1 O           9.1001    3.0660    0.0000 O.3     1  UNL1       -0.4814
      2 O           7.2342   -0.0104    0.0000 O.2     1  UNL1       -0.4538
      3 O           4.5841   -1.5588    0.0000 O.3     1  UNL1       -0.4791
      4 O           5.4803    3.0211    0.0000 O.3     1  UNL1       -0.5052
      5 O           4.6361    1.4896    0.0000 O.2     1  UNL1       -0.2865
      6 O           6.4213   -4.7071    0.0000 O.3     1  UNL1       -0.5066
      7 C           5.5021   -0.0104    0.0000 C.ar    1  UNL1        0.0869
      8 C           9.1084    4.1510    0.0000 C.3     1  UNL1        0.1235
      9 C           4.5921   -0.5172    0.0000 C.3     1  UNL1        0.1507
     10 C           6.3682    1.4896    0.0000 C.ar    1  UNL1        0.1065
     11 C           6.3682   -0.5104    0.0000 C.ar    1  UNL1        0.1498
     12 C           7.2342    0.9896    0.0000 C.ar    1  UNL1        0.1463
     13 C           7.2501    3.0589    0.0000 C.ar    1  UNL1        0.0588
     14 C           8.1522    2.5380    0.0000 C.ar    1  UNL1        0.1359
     15 C           5.5021    0.9896    0.0000 C.ar    1  UNL1        0.2036
     16 C           6.3521    2.5311    0.0000 C.ar    1  UNL1        0.1418
     17 C           6.3842   -1.5519    0.0000 C.ar    1  UNL1        0.0597
     18 C           8.1442    1.4964    0.0000 C.ar    1  UNL1        0.0240
     19 C           8.1688    4.6934    0.0000 C.2     1  UNL1       -0.0408
     20 C           5.4862   -2.0797    0.0000 C.ar    1  UNL1        0.1360
     21 C           7.2334    4.1437    0.0000 C.2     1  UNL1       -0.0478
     22 C           9.6118    5.0150    0.0000 C.3     1  UNL1       -0.0215
     23 C          10.1084    4.1471    0.0000 C.3     1  UNL1       -0.0215
     24 C           3.7319   -0.0073    0.0000 C.2     1  UNL1       -0.0406
     25 C           7.3361   -2.0725    0.0000 C.ar    1  UNL1       -0.0441
     26 C           5.4778   -3.1646    0.0000 C.ar    1  UNL1        0.0223
     27 C           2.8602   -0.4972    0.0000 C.2     1  UNL1       -0.0759
     28 C           7.3529   -3.1574    0.0000 C.ar    1  UNL1       -0.0193
     29 C           6.4174   -3.7071    0.0000 C.ar    1  UNL1        0.1204
     30 C           2.0000    0.0128    0.0000 C.3     1  UNL1       -0.0439
     31 C           2.8486   -1.4972    0.0000 C.3     1  UNL1       -0.0439
     32 H           4.0522   -0.8221    0.0000 H       1  UNL1        0.0833
     33 H           8.6775    1.1803    0.0000 H       1  UNL1        0.0691
     34 H           8.1664    5.3134    0.0000 H       1  UNL1        0.0611
     35 H           6.6929    4.4475    0.0000 H       1  UNL1        0.0624
     36 H          10.1475    4.7030    0.0000 H       1  UNL1        0.0271
     37 H           9.9238    5.5508    0.0000 H       1  UNL1        0.0271
     38 H           9.0760    5.3271    0.0000 H       1  UNL1        0.0271
     39 H          10.1061    3.5271    0.0000 H       1  UNL1        0.0271
     40 H          10.7284    4.1447    0.0000 H       1  UNL1        0.0271
     41 H          10.1108    4.7671    0.0000 H       1  UNL1        0.0271
     42 H           3.7391    0.6127    0.0000 H       1  UNL1        0.0611
     43 H           7.8670   -1.7522    0.0000 H       1  UNL1        0.0627
     44 H           4.9397   -3.4726    0.0000 H       1  UNL1        0.0691
     45 H           7.8934   -3.4612    0.0000 H       1  UNL1        0.0654
     46 H           5.4732    3.6410    0.0000 H       1  UNL1        0.2922
     47 H           2.3162    0.5461    0.0000 H       1  UNL1        0.0274
     48 H           1.4667    0.3289    0.0000 H       1  UNL1        0.0274
     49 H           1.6838   -0.5206    0.0000 H       1  UNL1        0.0274
     50 H           2.2287   -1.4900    0.0000 H       1  UNL1        0.0274
     51 H           2.8414   -2.1171    0.0000 H       1  UNL1        0.0274
     52 H           3.4686   -1.5043    0.0000 H       1  UNL1        0.0274
     53 H           6.9594   -5.0150    0.0000 H       1  UNL1        0.2921
@<TRIPOS>BOND
     1     1     8    1
     2     1    14    1
     3     2    11   ar
     4     2    12   ar
     5     3     9    1
     6     3    20    1
     7     4    16    1
     8     4    46    1
     9     5    15    2
    10     6    29    1
    11     6    53    1
    12     7     9    1
    13     7    11   ar
    14     7    15   ar
    15     8    19    1
    16     8    22    1
    17     8    23    1
    18     9    24    1
    19     9    32    1
    20    10    12   ar
    21    10    15   ar
    22    10    16   ar
    23    11    17    1
    24    12    18   ar
    25    13    14   ar
    26    13    16   ar
    27    13    21    1
    28    14    18   ar
    29    17    20   ar
    30    17    25   ar
    31    18    33    1
    32    19    21    2
    33    19    34    1
    34    20    26   ar
    35    21    35    1
    36    22    36    1
    37    22    37    1
    38    22    38    1
    39    23    39    1
    40    23    40    1
    41    23    41    1
    42    24    27    2
    43    24    42    1
    44    25    28   ar
    45    25    43    1
    46    26    29   ar
    47    26    44    1
    48    27    30    1
    49    27    31    1
    50    28    29   ar
    51    28    45    1
    52    30    47    1
    53    30    48    1
    54    30    49    1
    55    31    50    1
    56    31    51    1
    57    31    52    1
