@<TRIPOS>MOLECULE
IMPHY013424
 75 79 0 0 0
SMALL
GASTEIGER

@<TRIPOS>ATOM
      1 O           6.0010    2.5000    0.0000 O.3     1  UNL1       -0.3609
      2 O           5.1350   -2.0000    0.0000 O.3     1  UNL1       -0.3313
      3 O           8.5991    2.0000    0.0000 O.3     1  UNL1       -0.3862
      4 O           8.5991    4.0000    0.0000 O.3     1  UNL1       -0.3865
      5 O           6.8671   -2.0000    0.0000 O.3     1  UNL1       -0.4599
      6 O           6.8671    5.0000    0.0000 O.3     1  UNL1       -0.3865
      7 O           5.1350   -5.0000    0.0000 O.3     1  UNL1       -0.3864
      8 O           3.4030   -4.0000    0.0000 O.3     1  UNL1       -0.3865
      9 O           6.8671   -4.0000    0.0000 O.3     1  UNL1       -0.3829
     10 O           8.6270    1.0347    0.0000 O.2     1  UNL1       -0.4540
     11 O           5.1350    5.0000    0.0000 O.3     1  UNL1       -0.3924
     12 O           5.1350    1.0000    0.0000 O.3     1  UNL1       -0.4945
     13 O           2.5369   -2.5000    0.0000 O.3     1  UNL1       -0.3924
     14 O           8.6155   -2.0346    0.0000 O.2     1  UNL1       -0.2869
     15 O          12.9895    2.5342    0.0000 O.3     1  UNL1       -0.5068
     16 C           6.8671    2.0000    0.0000 C.3     1  UNL1        0.1193
     17 C           7.7331    2.5000    0.0000 C.3     1  UNL1        0.1139
     18 C           7.7331    3.5000    0.0000 C.3     1  UNL1        0.1121
     19 C           6.8671    4.0000    0.0000 C.3     1  UNL1        0.1117
     20 C           6.0010    3.5000    0.0000 C.3     1  UNL1        0.1108
     21 C           6.8671    1.0000    0.0000 C.ar    1  UNL1        0.0684
     22 C           5.1350   -4.0000    0.0000 C.3     1  UNL1        0.1152
     23 C           4.2690   -3.5000    0.0000 C.3     1  UNL1        0.1120
     24 C           6.0010   -3.5000    0.0000 C.3     1  UNL1        0.1454
     25 C           4.2690   -2.5000    0.0000 C.3     1  UNL1        0.1140
     26 C           6.0010   -2.5000    0.0000 C.3     1  UNL1        0.2308
     27 C           5.1350    4.0000    0.0000 C.3     1  UNL1        0.0729
     28 C           7.7331    0.5000    0.0000 C.ar    1  UNL1        0.1520
     29 C           6.0010    0.5000    0.0000 C.ar    1  UNL1        0.1328
     30 C           7.7331   -0.5000    0.0000 C.ar    1  UNL1        0.1062
     31 C           6.8671   -1.0000    0.0000 C.ar    1  UNL1        0.1418
     32 C           3.4030   -2.0000    0.0000 C.3     1  UNL1        0.0731
     33 C           6.0010   -0.5000    0.0000 C.ar    1  UNL1        0.0232
     34 C           8.6270   -1.0347    0.0000 C.ar    1  UNL1        0.1966
     35 C           9.5331    0.5208    0.0000 C.ar    1  UNL1        0.1392
     36 C           9.5331   -0.5208    0.0000 C.ar    1  UNL1        0.0288
     37 C          10.3972    1.0241    0.0000 C.ar    1  UNL1        0.0176
     38 C           4.2690    0.5000    0.0000 C.3     1  UNL1        0.0788
     39 C          10.3933    2.0241    0.0000 C.ar    1  UNL1       -0.0476
     40 C          11.2651    0.5275    0.0000 C.ar    1  UNL1       -0.0476
     41 C          11.2574    2.5275    0.0000 C.ar    1  UNL1       -0.0195
     42 C          12.1292    1.0308    0.0000 C.ar    1  UNL1       -0.0195
     43 C          12.1254    2.0308    0.0000 C.ar    1  UNL1        0.1169
     44 H           6.1309    1.5750    0.0000 H       1  UNL1        0.0676
     45 H           8.2700    2.8100    0.0000 H       1  UNL1        0.0649
     46 H           7.7331    4.1200    0.0000 H       1  UNL1        0.0647
     47 H           6.3301    4.3100    0.0000 H       1  UNL1        0.0647
     48 H           5.4641    3.1900    0.0000 H       1  UNL1        0.0646
     49 H           4.5981   -4.3100    0.0000 H       1  UNL1        0.0648
     50 H           4.2690   -4.1200    0.0000 H       1  UNL1        0.0647
     51 H           6.0010   -4.1200    0.0000 H       1  UNL1        0.0683
     52 H           4.2690   -1.8800    0.0000 H       1  UNL1        0.0647
     53 H           6.0010   -1.8800    0.0000 H       1  UNL1        0.1084
     54 H           4.5244    4.1077    0.0000 H       1  UNL1        0.0584
     55 H           4.9230    3.4174    0.0000 H       1  UNL1        0.0584
     56 H           9.1360    2.3100    0.0000 H       1  UNL1        0.2100
     57 H           8.5991    4.6200    0.0000 H       1  UNL1        0.2100
     58 H           3.8015   -1.5250    0.0000 H       1  UNL1        0.0584
     59 H           3.0044   -1.5250    0.0000 H       1  UNL1        0.0584
     60 H           7.4040    5.3100    0.0000 H       1  UNL1        0.2100
     61 H           5.4641   -0.8100    0.0000 H       1  UNL1        0.0691
     62 H           4.5981   -5.3100    0.0000 H       1  UNL1        0.2100
     63 H           3.4030   -4.6200    0.0000 H       1  UNL1        0.2100
     64 H           6.8671   -4.6200    0.0000 H       1  UNL1        0.2102
     65 H           4.5981    5.3100    0.0000 H       1  UNL1        0.2095
     66 H          10.0688   -0.8329    0.0000 H       1  UNL1        0.0693
     67 H           2.0000   -2.1900    0.0000 H       1  UNL1        0.2095
     68 H           3.9590    1.0369    0.0000 H       1  UNL1        0.0660
     69 H           3.7320    0.1900    0.0000 H       1  UNL1        0.0660
     70 H           4.5790   -0.0369    0.0000 H       1  UNL1        0.0660
     71 H           9.8552    2.3321    0.0000 H       1  UNL1        0.0626
     72 H          11.2675   -0.0925    0.0000 H       1  UNL1        0.0626
     73 H          11.2550    3.1475    0.0000 H       1  UNL1        0.0654
     74 H          12.6674    0.7229    0.0000 H       1  UNL1        0.0654
     75 H          13.5276    2.2262    0.0000 H       1  UNL1        0.2921
@<TRIPOS>BOND
     1     1    16    1
     2     1    20    1
     3     2    25    1
     4     2    26    1
     5     3    17    1
     6     3    56    1
     7    18     4    1
     8     4    57    1
     9    26     5    1
    10     5    31    1
    11    19     6    1
    12     6    60    1
    13    22     7    1
    14     7    62    1
    15    23     8    1
    16     8    63    1
    17     9    24    1
    18     9    64    1
    19    10    28   ar
    20    10    35   ar
    21    11    27    1
    22    11    65    1
    23    12    29    1
    24    12    38    1
    25    13    32    1
    26    13    67    1
    27    14    34    2
    28    15    43    1
    29    15    75    1
    30    16    17    1
    31    16    21    1
    32    16    44    1
    33    17    18    1
    34    17    45    1
    35    18    19    1
    36    18    46    1
    37    19    20    1
    38    19    47    1
    39    20    27    1
    40    20    48    1
    41    21    28   ar
    42    21    29   ar
    43    22    23    1
    44    22    24    1
    45    22    49    1
    46    23    25    1
    47    23    50    1
    48    24    26    1
    49    24    51    1
    50    25    32    1
    51    25    52    1
    52    26    53    1
    53    27    54    1
    54    27    55    1
    55    28    30   ar
    56    29    33   ar
    57    30    31   ar
    58    30    34   ar
    59    31    33   ar
    60    32    58    1
    61    32    59    1
    62    33    61    1
    63    34    36   ar
    64    35    36   ar
    65    35    37    1
    66    36    66    1
    67    37    39   ar
    68    37    40   ar
    69    38    68    1
    70    38    69    1
    71    38    70    1
    72    39    41   ar
    73    39    71    1
    74    40    42   ar
    75    40    72    1
    76    41    43   ar
    77    41    73    1
    78    42    43   ar
    79    42    74    1
