@<TRIPOS>MOLECULE
IMPHY013996
 33 34 0 0 0
SMALL
GASTEIGER

@<TRIPOS>ATOM
      1 O           5.4641    1.1550    0.0000 O.2     1  UNL1       -0.2702
      2 O           2.8660   -4.3450    0.0000 O.3     1  UNL1       -0.5068
      3 N           3.7320    1.1550    0.0000 N.am    1  UNL1       -0.3110
      4 C           2.8660   -0.3450    0.0000 C.3     1  UNL1       -0.0120
      5 C           3.7320    0.1550    0.0000 C.3     1  UNL1        0.0159
      6 C           2.8660   -1.3450    0.0000 C.ar    1  UNL1       -0.0457
      7 C           3.7320   -1.8450    0.0000 C.ar    1  UNL1       -0.0551
      8 C           2.0000   -1.8450    0.0000 C.ar    1  UNL1       -0.0551
      9 C           4.5981    1.6550    0.0000 C.2     1  UNL1        0.2441
     10 C           4.5981    2.6550    0.0000 C.ar    1  UNL1        0.0367
     11 C           3.7320   -2.8450    0.0000 C.ar    1  UNL1       -0.0199
     12 C           2.0000   -2.8450    0.0000 C.ar    1  UNL1       -0.0199
     13 C           2.8660   -3.3450    0.0000 C.ar    1  UNL1        0.1169
     14 C           3.7320    3.1550    0.0000 C.ar    1  UNL1       -0.0496
     15 C           5.4641    3.1550    0.0000 C.ar    1  UNL1       -0.0496
     16 C           3.7320    4.1550    0.0000 C.ar    1  UNL1       -0.0610
     17 C           5.4641    4.1550    0.0000 C.ar    1  UNL1       -0.0610
     18 C           4.5981    4.6550    0.0000 C.ar    1  UNL1       -0.0617
     19 H           2.6540    0.2376    0.0000 H       1  UNL1        0.0328
     20 H           2.2554   -0.4527    0.0000 H       1  UNL1        0.0328
     21 H           3.9441   -0.4276    0.0000 H       1  UNL1        0.0465
     22 H           4.3426    0.2627    0.0000 H       1  UNL1        0.0465
     23 H           3.1951    1.4650    0.0000 H       1  UNL1        0.1490
     24 H           4.2690   -1.5350    0.0000 H       1  UNL1        0.0621
     25 H           1.4631   -1.5350    0.0000 H       1  UNL1        0.0621
     26 H           4.2690   -3.1550    0.0000 H       1  UNL1        0.0654
     27 H           1.4631   -3.1550    0.0000 H       1  UNL1        0.0654
     28 H           3.1951    2.8450    0.0000 H       1  UNL1        0.0625
     29 H           6.0010    2.8450    0.0000 H       1  UNL1        0.0625
     30 H           3.1951    4.4650    0.0000 H       1  UNL1        0.0618
     31 H           6.0010    4.4650    0.0000 H       1  UNL1        0.0618
     32 H           4.5981    5.2750    0.0000 H       1  UNL1        0.0618
     33 H           2.3291   -4.6550    0.0000 H       1  UNL1        0.2921
@<TRIPOS>BOND
     1     1     9    2
     2     2    13    1
     3     2    33    1
     4     3     5    1
     5     3     9   am
     6     3    23    1
     7     4     5    1
     8     4     6    1
     9     4    19    1
    10     4    20    1
    11     5    21    1
    12     5    22    1
    13     6     7   ar
    14     6     8   ar
    15     7    11   ar
    16     7    24    1
    17     8    12   ar
    18     8    25    1
    19     9    10    1
    20    10    14   ar
    21    10    15   ar
    22    11    13   ar
    23    11    26    1
    24    12    13   ar
    25    12    27    1
    26    14    16   ar
    27    14    28    1
    28    15    17   ar
    29    15    29    1
    30    16    18   ar
    31    16    30    1
    32    17    18   ar
    33    17    31    1
    34    18    32    1
