@<TRIPOS>MOLECULE
IMPHY013506
 35 35 0 0 0
SMALL
GASTEIGER

@<TRIPOS>ATOM
      1 N           7.1962   -0.5000    0.0000 N.3     1  UNL1       -0.3024
      2 C           6.3301   -0.0000    0.0000 C.3     1  UNL1        0.0101
      3 C           6.3301    1.0000    0.0000 C.3     1  UNL1       -0.0373
      4 C           5.4641   -0.5000    0.0000 C.3     1  UNL1       -0.0373
      5 C           7.1962    1.5000    0.0000 C.3     1  UNL1       -0.0505
      6 C           8.0622    0.0000    0.0000 C.3     1  UNL1       -0.0011
      7 C           8.0622    1.0000    0.0000 C.3     1  UNL1       -0.0402
      8 C           4.5981   -0.0000    0.0000 C.3     1  UNL1       -0.0517
      9 C           7.1962   -1.5000    0.0000 C.3     1  UNL1       -0.0125
     10 C           3.7320   -0.5000    0.0000 C.3     1  UNL1       -0.0533
     11 C           2.8660   -0.0000    0.0000 C.3     1  UNL1       -0.0559
     12 C           2.0000   -0.5000    0.0000 C.3     1  UNL1       -0.0653
     13 H           6.3301   -0.6200    0.0000 H       1  UNL1        0.0462
     14 H           6.1181    1.5826    0.0000 H       1  UNL1        0.0280
     15 H           5.7196    0.8923    0.0000 H       1  UNL1        0.0280
     16 H           5.0656   -0.9749    0.0000 H       1  UNL1        0.0280
     17 H           5.8626   -0.9749    0.0000 H       1  UNL1        0.0280
     18 H           7.5947    1.9750    0.0000 H       1  UNL1        0.0266
     19 H           6.7976    1.9750    0.0000 H       1  UNL1        0.0266
     20 H           8.2742   -0.5826    0.0000 H       1  UNL1        0.0426
     21 H           8.6728    0.1077    0.0000 H       1  UNL1        0.0426
     22 H           8.6728    0.8923    0.0000 H       1  UNL1        0.0278
     23 H           8.2742    1.5826    0.0000 H       1  UNL1        0.0278
     24 H           4.9966    0.4749    0.0000 H       1  UNL1        0.0266
     25 H           4.1996    0.4749    0.0000 H       1  UNL1        0.0266
     26 H           6.5762   -1.5000    0.0000 H       1  UNL1        0.0391
     27 H           7.1962   -2.1200    0.0000 H       1  UNL1        0.0391
     28 H           7.8162   -1.5000    0.0000 H       1  UNL1        0.0391
     29 H           3.3335   -0.9749    0.0000 H       1  UNL1        0.0265
     30 H           4.1306   -0.9749    0.0000 H       1  UNL1        0.0265
     31 H           3.2646    0.4749    0.0000 H       1  UNL1        0.0263
     32 H           2.4675    0.4749    0.0000 H       1  UNL1        0.0263
     33 H           1.6900    0.0369    0.0000 H       1  UNL1        0.0230
     34 H           1.4631   -0.8100    0.0000 H       1  UNL1        0.0230
     35 H           2.3100   -1.0369    0.0000 H       1  UNL1        0.0230
@<TRIPOS>BOND
     1     1     2    1
     2     1     6    1
     3     1     9    1
     4     2     3    1
     5     2     4    1
     6     2    13    1
     7     3     5    1
     8     3    14    1
     9     3    15    1
    10     4     8    1
    11     4    16    1
    12     4    17    1
    13     5     7    1
    14     5    18    1
    15     5    19    1
    16     6     7    1
    17     6    20    1
    18     6    21    1
    19     7    22    1
    20     7    23    1
    21     8    10    1
    22     8    24    1
    23     8    25    1
    24     9    26    1
    25     9    27    1
    26     9    28    1
    27    10    11    1
    28    10    29    1
    29    10    30    1
    30    11    12    1
    31    11    31    1
    32    11    32    1
    33    12    33    1
    34    12    34    1
    35    12    35    1
