@<TRIPOS>MOLECULE
IMPHY003539
 53 55 0 0 0
SMALL
GASTEIGER

@<TRIPOS>ATOM
      1 O           4.6356    0.0845    0.0000 O.3     1  UNL1       -0.4525
      2 O           2.5369    1.0135    0.0000 O.3     1  UNL1       -0.3878
      3 O           6.6293   -0.0160    0.0000 O.2     1  UNL1       -0.2453
      4 C           6.0010   -0.9865    0.0000 C.3     1  UNL1       -0.0082
      5 C           6.0128   -2.0022    0.0000 C.3     1  UNL1       -0.0348
      6 C           4.2690   -0.9865    0.0000 C.3     1  UNL1       -0.0172
      7 C           5.1350   -0.4865    0.0000 C.2     1  UNL1       -0.0673
      8 C           5.1350   -2.5135    0.0000 C.3     1  UNL1       -0.0491
      9 C           4.2572   -2.0022    0.0000 C.3     1  UNL1       -0.0462
     10 C           6.8671   -0.4865    0.0000 C.3     1  UNL1       -0.0395
     11 C           3.4030   -0.4865    0.0000 C.3     1  UNL1       -0.0166
     12 C           3.4030    0.5135    0.0000 C.3     1  UNL1        0.0952
     13 C           6.8671   -1.4865    0.0000 C.3     1  UNL1       -0.0556
     14 C           4.2690    1.0135    0.0000 C.3     1  UNL1        0.1369
     15 C           6.8826   -2.4955    0.0000 C.3     1  UNL1       -0.0616
     16 C           6.8671    0.5135    0.0000 C.3     1  UNL1       -0.0204
     17 C           4.2690    2.0135    0.0000 C.3     1  UNL1       -0.0071
     18 C           5.1350    0.5135    0.0000 C.2     1  UNL1       -0.0987
     19 C           6.0010    1.0135    0.0000 C.2     1  UNL1        0.0327
     20 C           5.1350    2.5135    0.0000 C.3     1  UNL1       -0.0303
     21 C           3.4030    1.5135    0.0000 C.3     1  UNL1       -0.0223
     22 C           6.0010    2.0135    0.0000 C.2     1  UNL1       -0.0739
     23 C           5.6344    0.0845    0.0000 C.2     1  UNL1        0.3354
     24 H           6.0164   -2.6222    0.0000 H       1  UNL1        0.0306
     25 H           3.7303   -1.2934    0.0000 H       1  UNL1        0.0347
     26 H           4.7359   -2.9880    0.0000 H       1  UNL1        0.0268
     27 H           5.5342   -2.9880    0.0000 H       1  UNL1        0.0268
     28 H           3.6476   -1.8891    0.0000 H       1  UNL1        0.0271
     29 H           4.0414   -2.5835    0.0000 H       1  UNL1        0.0271
     30 H           7.0791   -1.0691    0.0000 H       1  UNL1        0.0277
     31 H           7.4776   -0.3788    0.0000 H       1  UNL1        0.0277
     32 H           2.7924   -0.3788    0.0000 H       1  UNL1        0.0297
     33 H           3.1909   -1.0691    0.0000 H       1  UNL1        0.0297
     34 H           3.9399    0.2035    0.0000 H       1  UNL1        0.0633
     35 H           6.5571   -2.0234    0.0000 H       1  UNL1        0.0238
     36 H           7.4040   -1.7965    0.0000 H       1  UNL1        0.0238
     37 H           7.1771   -0.9495    0.0000 H       1  UNL1        0.0238
     38 H           6.5768   -3.0348    0.0000 H       1  UNL1        0.0233
     39 H           7.4220   -2.8014    0.0000 H       1  UNL1        0.0233
     40 H           7.1885   -1.9562    0.0000 H       1  UNL1        0.0233
     41 H           7.4776    0.4059    0.0000 H       1  UNL1        0.0316
     42 H           7.0791    1.0961    0.0000 H       1  UNL1        0.0316
     43 H           4.0569    2.5961    0.0000 H       1  UNL1        0.0307
     44 H           3.6584    1.9059    0.0000 H       1  UNL1        0.0307
     45 H           5.6720    0.8235    0.0000 H       1  UNL1        0.0535
     46 H           4.5981    0.8235    0.0000 H       1  UNL1        0.0535
     47 H           5.5335    2.9885    0.0000 H       1  UNL1        0.0309
     48 H           4.7365    2.9885    0.0000 H       1  UNL1        0.0309
     49 H           3.7130    2.0505    0.0000 H       1  UNL1        0.0269
     50 H           2.8660    1.8235    0.0000 H       1  UNL1        0.0269
     51 H           3.0930    0.9766    0.0000 H       1  UNL1        0.0269
     52 H           6.5380    2.3235    0.0000 H       1  UNL1        0.0577
     53 H           2.0000    0.7035    0.0000 H       1  UNL1        0.2099
@<TRIPOS>BOND
     1     1    14    1
     2     1    23    1
     3     2    12    1
     4     2    53    1
     5     3    23    2
     6     4     5    1
     7     4     7    1
     8     4    10    1
     9     4    13    1
    10     5     8    1
    11     5    15    1
    12     5    24    1
    13     6     7    1
    14     6     9    1
    15     6    11    1
    16     6    25    1
    17     7    18    2
    18     8     9    1
    19     8    26    1
    20     8    27    1
    21     9    28    1
    22     9    29    1
    23    10    16    1
    24    10    30    1
    25    10    31    1
    26    11    12    1
    27    11    32    1
    28    11    33    1
    29    12    14    1
    30    12    34    1
    31    13    35    1
    32    13    36    1
    33    13    37    1
    34    14    17    1
    35    14    21    1
    36    15    38    1
    37    15    39    1
    38    15    40    1
    39    16    19    1
    40    16    41    1
    41    16    42    1
    42    17    20    1
    43    17    43    1
    44    17    44    1
    45    18    45    1
    46    18    46    1
    47    19    22    2
    48    19    23    1
    49    20    22    1
    50    20    47    1
    51    20    48    1
    52    21    49    1
    53    21    50    1
    54    21    51    1
    55    22    52    1
