@<TRIPOS>MOLECULE
IMPHY001326
 53 57 0 0 0
SMALL
GASTEIGER

@<TRIPOS>ATOM
      1 O           6.6555   -2.9369    0.0000 O.3     1  UNL1       -0.4646
      2 O           7.0156   -1.2427    0.0000 O.2     1  UNL1       -0.2453
      3 O           6.4218    3.0214    0.0000 O.3     1  UNL1       -0.4951
      4 N           2.6254   -1.1949    0.0000 N.3     1  UNL1       -0.2937
      5 N           5.7049   -0.1943    0.0000 N.pl3   1  UNL1       -0.3163
      6 C           4.1652   -0.6946    0.0000 C.3     1  UNL1        0.0533
      7 C           3.5397   -1.3893    0.0000 C.3     1  UNL1        0.0349
      8 C           3.8286   -2.2782    0.0000 C.3     1  UNL1        0.0095
      9 C           3.7801    0.3410    0.0000 C.3     1  UNL1       -0.0237
     10 C           5.0795   -0.8890    0.0000 C.2     1  UNL1        0.0304
     11 C           2.3366   -0.3060    0.0000 C.3     1  UNL1        0.0007
     12 C           4.7429   -2.4726    0.0000 C.3     1  UNL1       -0.0089
     13 C           4.5018    0.8890    0.0000 C.ar    1  UNL1       -0.0127
     14 C           5.3683   -1.7779    0.0000 C.2     1  UNL1        0.0553
     15 C           4.1376   -3.2293    0.0000 C.3     1  UNL1       -0.0450
     16 C           3.2031   -2.9729    0.0000 C.2     1  UNL1       -0.0787
     17 C           2.0000   -1.8896    0.0000 C.3     1  UNL1        0.0175
     18 C           5.4161    0.6946    0.0000 C.ar    1  UNL1        0.0388
     19 C           2.2888   -2.7785    0.0000 C.2     1  UNL1       -0.0734
     20 C           4.2129    1.7779    0.0000 C.ar    1  UNL1       -0.0524
     21 C           3.4685   -3.9724    0.0000 C.3     1  UNL1       -0.0644
     22 C           6.3465   -1.9858    0.0000 C.2     1  UNL1        0.3364
     23 C           6.0415    1.3893    0.0000 C.ar    1  UNL1        0.0015
     24 C           4.8384    2.4726    0.0000 C.ar    1  UNL1       -0.0196
     25 C           5.7527    2.2782    0.0000 C.ar    1  UNL1        0.1219
     26 C           7.6336   -3.1448    0.0000 C.3     1  UNL1        0.0820
     27 C           6.1128    3.9724    0.0000 C.3     1  UNL1        0.0788
     28 H           3.2771   -0.5809    0.0000 H       1  UNL1        0.0484
     29 H           4.3564    0.5697    0.0000 H       1  UNL1        0.0290
     30 H           3.5389    0.9121    0.0000 H       1  UNL1        0.0290
     31 H           2.1034    0.2685    0.0000 H       1  UNL1        0.0427
     32 H           1.7542   -0.5185    0.0000 H       1  UNL1        0.0427
     33 H           4.5106   -3.0474    0.0000 H       1  UNL1        0.0325
     34 H           5.2687   -2.8011    0.0000 H       1  UNL1        0.0325
     35 H           4.5193   -3.7178    0.0000 H       1  UNL1        0.0272
     36 H           4.6850   -2.9382    0.0000 H       1  UNL1        0.0272
     37 H           3.3947   -3.5625    0.0000 H       1  UNL1        0.0576
     38 H           1.6183   -1.4010    0.0000 H       1  UNL1        0.0470
     39 H           1.4526   -2.1806    0.0000 H       1  UNL1        0.0470
     40 H           6.3114   -0.3232    0.0000 H       1  UNL1        0.1519
     41 H           1.8740   -3.2393    0.0000 H       1  UNL1        0.0582
     42 H           3.6065    1.9068    0.0000 H       1  UNL1        0.0622
     43 H           3.0077   -3.5576    0.0000 H       1  UNL1        0.0230
     44 H           3.0536   -4.4332    0.0000 H       1  UNL1        0.0230
     45 H           3.9292   -4.3873    0.0000 H       1  UNL1        0.0230
     46 H           6.6480    1.2604    0.0000 H       1  UNL1        0.0673
     47 H           4.6468    3.0622    0.0000 H       1  UNL1        0.0654
     48 H           7.5047   -3.7513    0.0000 H       1  UNL1        0.0661
     49 H           8.2401   -3.2737    0.0000 H       1  UNL1        0.0661
     50 H           7.7625   -2.5384    0.0000 H       1  UNL1        0.0661
     51 H           6.7025    4.1640    0.0000 H       1  UNL1        0.0660
     52 H           5.9212    4.5621    0.0000 H       1  UNL1        0.0660
     53 H           5.5232    3.7808    0.0000 H       1  UNL1        0.0660
@<TRIPOS>BOND
     1     1    22    1
     2     1    26    1
     3     2    22    2
     4     3    25    1
     5     3    27    1
     6     4     7    1
     7     4    11    1
     8     4    17    1
     9     5    10    1
    10     5    18    1
    11     5    40    1
    12     6     7    1
    13     6     9    1
    14     6    10    1
    15     6    13    1
    16     7     8    1
    17     7    28    1
    18     8    12    1
    19     8    15    1
    20     8    16    1
    21     9    11    1
    22     9    29    1
    23     9    30    1
    24    10    14    2
    25    11    31    1
    26    11    32    1
    27    12    14    1
    28    12    33    1
    29    12    34    1
    30    13    18   ar
    31    13    20   ar
    32    14    22    1
    33    15    21    1
    34    15    35    1
    35    15    36    1
    36    16    19    2
    37    16    37    1
    38    17    19    1
    39    17    38    1
    40    17    39    1
    41    18    23   ar
    42    19    41    1
    43    20    24   ar
    44    20    42    1
    45    21    43    1
    46    21    44    1
    47    21    45    1
    48    23    25   ar
    49    23    46    1
    50    24    25   ar
    51    24    47    1
    52    26    48    1
    53    26    49    1
    54    26    50    1
    55    27    51    1
    56    27    52    1
    57    27    53    1
