@<TRIPOS>MOLECULE
IMPHY013246
 48 50 0 0 0
SMALL
GASTEIGER

@<TRIPOS>ATOM
      1 O           3.7690    2.8170    0.0000 O.3     1  UNL1       -0.3785
      2 O           2.5369    1.9510    0.0000 O.3     1  UNL1       -0.3858
      3 O           2.5369   -0.0490    0.0000 O.3     1  UNL1       -0.3851
      4 O           4.2690   -1.0490    0.0000 O.3     1  UNL1       -0.4510
      5 O           5.7690    2.8170    0.0000 O.3     1  UNL1       -0.4578
      6 O           6.0010   -1.0490    0.0000 O.2     1  UNL1       -0.2449
      7 O           5.7690    4.5490    0.0000 O.2     1  UNL1       -0.2450
      8 C           4.2690    1.9510    0.0000 C.3     1  UNL1        0.1463
      9 C           3.4030    1.4510    0.0000 C.3     1  UNL1        0.1202
     10 C           3.4030    0.4510    0.0000 C.3     1  UNL1        0.1245
     11 C           4.2690   -0.0490    0.0000 C.3     1  UNL1        0.1499
     12 C           5.1350    1.4510    0.0000 C.2     1  UNL1       -0.0474
     13 C           4.7690    2.8170    0.0000 C.3     1  UNL1        0.1275
     14 C           5.1350    0.4510    0.0000 C.2     1  UNL1       -0.0424
     15 C           5.1350   -1.5490    0.0000 C.2     1  UNL1        0.3398
     16 C           6.2690    3.6830    0.0000 C.2     1  UNL1        0.3393
     17 C           5.1350   -2.5490    0.0000 C.ar    1  UNL1        0.0590
     18 C           7.2690    3.6830    0.0000 C.ar    1  UNL1        0.0590
     19 C           4.2690   -3.0490    0.0000 C.ar    1  UNL1       -0.0478
     20 C           6.0010   -3.0490    0.0000 C.ar    1  UNL1       -0.0478
     21 C           7.7690    4.5490    0.0000 C.ar    1  UNL1       -0.0478
     22 C           7.7690    2.8170    0.0000 C.ar    1  UNL1       -0.0478
     23 C           4.2690   -4.0490    0.0000 C.ar    1  UNL1       -0.0610
     24 C           6.0010   -4.0490    0.0000 C.ar    1  UNL1       -0.0610
     25 C           5.1350   -4.5490    0.0000 C.ar    1  UNL1       -0.0617
     26 C           8.7690    4.5490    0.0000 C.ar    1  UNL1       -0.0610
     27 C           8.7690    2.8170    0.0000 C.ar    1  UNL1       -0.0610
     28 C           9.2690    3.6830    0.0000 C.ar    1  UNL1       -0.0617
     29 H           3.4030    2.0710    0.0000 H       1  UNL1        0.0654
     30 H           3.4030   -0.1690    0.0000 H       1  UNL1        0.0661
     31 H           4.8059   -0.3590    0.0000 H       1  UNL1        0.0807
     32 H           5.6720    1.7610    0.0000 H       1  UNL1        0.0600
     33 H           4.8766    3.4276    0.0000 H       1  UNL1        0.0731
     34 H           4.1864    3.0290    0.0000 H       1  UNL1        0.0731
     35 H           5.6720    0.1410    0.0000 H       1  UNL1        0.0607
     36 H           4.0790    3.3539    0.0000 H       1  UNL1        0.2109
     37 H           2.0000    1.6410    0.0000 H       1  UNL1        0.2100
     38 H           2.5369   -0.6690    0.0000 H       1  UNL1        0.2101
     39 H           3.7320   -2.7390    0.0000 H       1  UNL1        0.0626
     40 H           6.5380   -2.7390    0.0000 H       1  UNL1        0.0626
     41 H           7.4590    5.0860    0.0000 H       1  UNL1        0.0626
     42 H           7.4590    2.2800    0.0000 H       1  UNL1        0.0626
     43 H           3.7320   -4.3590    0.0000 H       1  UNL1        0.0618
     44 H           6.5380   -4.3590    0.0000 H       1  UNL1        0.0618
     45 H           5.1350   -5.1690    0.0000 H       1  UNL1        0.0618
     46 H           9.0790    5.0860    0.0000 H       1  UNL1        0.0618
     47 H           9.0790    2.2800    0.0000 H       1  UNL1        0.0618
     48 H           9.8890    3.6830    0.0000 H       1  UNL1        0.0618
@<TRIPOS>BOND
     1     1     8    1
     2     1    36    1
     3     2     9    1
     4     2    37    1
     5     3    10    1
     6     3    38    1
     7     4    11    1
     8     4    15    1
     9     5    13    1
    10     5    16    1
    11     6    15    2
    12     7    16    2
    13     8     9    1
    14     8    12    1
    15     8    13    1
    16     9    10    1
    17     9    29    1
    18    10    11    1
    19    10    30    1
    20    11    14    1
    21    11    31    1
    22    12    14    2
    23    12    32    1
    24    13    33    1
    25    13    34    1
    26    14    35    1
    27    15    17    1
    28    16    18    1
    29    17    19   ar
    30    17    20   ar
    31    18    21   ar
    32    18    22   ar
    33    19    23   ar
    34    19    39    1
    35    20    24   ar
    36    20    40    1
    37    21    26   ar
    38    21    41    1
    39    22    27   ar
    40    22    42    1
    41    23    25   ar
    42    23    43    1
    43    24    25   ar
    44    24    44    1
    45    25    45    1
    46    26    28   ar
    47    26    46    1
    48    27    28   ar
    49    27    47    1
    50    28    48    1
