@<TRIPOS>MOLECULE
IMPHY009909
 51 48 0 0 0
SMALL
GASTEIGER

@<TRIPOS>ATOM
      1 O           5.2320    2.2710    0.0000 O.2     1  UNL1       -0.3006
      2 O           7.5981    3.6370    0.0000 O.2     1  UNL1       -0.3006
      3 O           2.8660   -2.8270    0.0000 O.3     2  UNL2       -0.4915
      4 O           4.5981   -3.8270    0.0000 O.3     2  UNL2       -0.5033
      5 O          13.1962    4.1370    0.0000 O.3     3  UNL3       -0.5068
      6 C           6.5981    2.6370    0.0000 C.3     1  UNL1        0.0583
      7 C           6.0981    1.7710    0.0000 C.2     1  UNL1        0.1271
      8 C           7.5981    2.6370    0.0000 C.2     1  UNL1        0.1271
      9 C           5.5981    0.9050    0.0000 C.2     1  UNL1       -0.1058
     10 C           8.5981    2.6370    0.0000 C.2     2  UNL2       -0.1058
     11 C           5.0981    0.0390    0.0000 C.2     1  UNL1       -0.1058
     12 C           9.5981    2.6370    0.0000 C.2     2  UNL2       -0.1058
     13 C           4.5981   -0.8271    0.0000 C.ar    2  UNL2       -0.0581
     14 C          10.5981    2.6370    0.0000 C.ar    3  UNL3       -0.0615
     15 C           3.7320   -1.3270    0.0000 C.ar    2  UNL2       -0.0163
     16 C           5.4641   -1.3270    0.0000 C.ar    2  UNL2       -0.0581
     17 C          10.5981    3.6370    0.0000 C.ar    3  UNL3       -0.0583
     18 C          11.4641    2.1370    0.0000 C.ar    3  UNL3       -0.0583
     19 C           3.7320   -2.3270    0.0000 C.ar    2  UNL2        0.1613
     20 C           5.4641   -2.3270    0.0000 C.ar    2  UNL2       -0.0165
     21 C           4.5981   -2.8270    0.0000 C.ar    2  UNL2        0.1584
     22 C          11.4641    4.1370    0.0000 C.ar    3  UNL3       -0.0202
     23 C          12.3301    2.6370    0.0000 C.ar    3  UNL3       -0.0202
     24 C          12.3301    3.6370    0.0000 C.ar    3  UNL3        0.1169
     25 C           2.0000   -2.3270    0.0000 C.3     2  UNL2        0.0790
     26 H           6.7057    3.2476    0.0000 H       1  UNL1        0.0413
     27 H           6.0155    2.8491    0.0000 H       1  UNL1        0.0413
     28 H           6.6350    1.4610    0.0000 H       1  UNL1        0.1030
     29 H           7.5981    2.0170    0.0000 H       1  UNL1        0.1030
     30 H           5.0611    1.2150    0.0000 H       1  UNL1        0.0529
     31 H           6.1350    0.5950    0.0000 H       1  UNL1        0.0529
     32 H           8.5981    3.2570    0.0000 H       2  UNL2        0.0529
     33 H           8.5981    2.0170    0.0000 H       2  UNL2        0.0529
     34 H           5.6350   -0.2710    0.0000 H       1  UNL1        0.0529
     35 H           4.5611    0.3490    0.0000 H       1  UNL1        0.0529
     36 H           9.5981    3.2570    0.0000 H       2  UNL2        0.0529
     37 H           9.5981    2.0170    0.0000 H       2  UNL2        0.0529
     38 H           4.2881   -0.2901    0.0000 H       2  UNL2        0.0619
     39 H          10.5981    1.6370    0.0000 H       3  UNL3        0.0618
     40 H           3.1951   -1.0170    0.0000 H       2  UNL2        0.0655
     41 H           6.0010   -1.0170    0.0000 H       2  UNL2        0.0619
     42 H          10.0611    3.9470    0.0000 H       3  UNL3        0.0619
     43 H          11.4641    1.5170    0.0000 H       3  UNL3        0.0619
     44 H           6.0010   -2.6370    0.0000 H       2  UNL2        0.0655
     45 H          11.4641    4.7570    0.0000 H       3  UNL3        0.0654
     46 H          12.8671    2.3270    0.0000 H       3  UNL3        0.0654
     47 H           5.1350   -4.1370    0.0000 H       2  UNL2        0.2923
     48 H          13.7331    3.8270    0.0000 H       3  UNL3        0.2921
     49 H           2.3100   -1.7901    0.0000 H       2  UNL2        0.0660
     50 H           1.4631   -2.0170    0.0000 H       2  UNL2        0.0660
     51 H           1.6900   -2.8640    0.0000 H       2  UNL2        0.0660
@<TRIPOS>BOND
     1     1     7    2
     2     2     8    2
     3     3    19    1
     4     3    25    1
     5     4    21    1
     6     4    47    1
     7     5    24    1
     8     5    48    1
     9     6     7    1
    10     6     8    1
    11     6    26    1
    12     6    27    1
    13     7    28    1
    14     8    29    1
    15     9    11    2
    16     9    30    1
    17     9    31    1
    18    10    12    2
    19    10    32    1
    20    10    33    1
    21    11    34    1
    22    11    35    1
    23    12    36    1
    24    12    37    1
    25    13    15   ar
    26    13    16   ar
    27    13    38    1
    28    14    17   ar
    29    14    18   ar
    30    14    39    1
    31    15    19   ar
    32    15    40    1
    33    16    20   ar
    34    16    41    1
    35    17    22   ar
    36    17    42    1
    37    18    23   ar
    38    18    43    1
    39    19    21   ar
    40    20    21   ar
    41    20    44    1
    42    22    24   ar
    43    22    45    1
    44    23    24   ar
    45    23    46    1
    46    25    49    1
    47    25    50    1
    48    25    51    1
