@<TRIPOS>MOLECULE
IMPHY013324
 53 52 0 0 0
SMALL
GASTEIGER

@<TRIPOS>ATOM
      1 O           2.8660   -2.2500    0.0000 O.3     1  UNL1       -0.4679
      2 O           3.7320   -3.7500    0.0000 O.2     1  UNL1       -0.2509
      3 C           7.1962   -2.7500    0.0000 C.3     1  UNL1       -0.0530
      4 C           8.0622   -2.2500    0.0000 C.3     1  UNL1       -0.0528
      5 C           6.3301   -2.2500    0.0000 C.3     1  UNL1       -0.0526
      6 C           8.9282   -2.7500    0.0000 C.3     1  UNL1       -0.0496
      7 C           5.4641   -2.7500    0.0000 C.3     1  UNL1       -0.0430
      8 C           9.7942   -2.2500    0.0000 C.3     1  UNL1       -0.0345
      9 C           4.5981   -2.2500    0.0000 C.3     1  UNL1        0.0449
     10 C          10.6603   -2.7500    0.0000 C.2     1  UNL1       -0.0840
     11 C           3.7320   -2.7500    0.0000 C.2     1  UNL1        0.3068
     12 C          14.1244    2.2500    0.0000 C.3     1  UNL1       -0.0499
     13 C          13.2583    1.7500    0.0000 C.3     1  UNL1       -0.0345
     14 C          14.1244    3.2500    0.0000 C.3     1  UNL1       -0.0556
     15 C          11.5263   -2.2500    0.0000 C.2     1  UNL1       -0.0657
     16 C          13.2583    0.7500    0.0000 C.2     1  UNL1       -0.0840
     17 C          14.9904    3.7500    0.0000 C.3     1  UNL1       -0.0653
     18 C          11.5263   -1.2500    0.0000 C.2     1  UNL1       -0.0621
     19 C          12.3923    0.2500    0.0000 C.2     1  UNL1       -0.0657
     20 C          12.3923   -0.7500    0.0000 C.2     1  UNL1       -0.0621
     21 C           2.0000   -2.7500    0.0000 C.3     1  UNL1        0.0817
     22 H           6.7976   -3.2250    0.0000 H       1  UNL1        0.0265
     23 H           7.5947   -3.2250    0.0000 H       1  UNL1        0.0265
     24 H           8.4607   -1.7750    0.0000 H       1  UNL1        0.0265
     25 H           7.6636   -1.7750    0.0000 H       1  UNL1        0.0265
     26 H           6.7287   -1.7750    0.0000 H       1  UNL1        0.0265
     27 H           5.9316   -1.7750    0.0000 H       1  UNL1        0.0265
     28 H           8.5297   -3.2250    0.0000 H       1  UNL1        0.0268
     29 H           9.3267   -3.2250    0.0000 H       1  UNL1        0.0268
     30 H           5.0656   -3.2250    0.0000 H       1  UNL1        0.0270
     31 H           5.8626   -3.2250    0.0000 H       1  UNL1        0.0270
     32 H          10.1928   -1.7750    0.0000 H       1  UNL1        0.0307
     33 H           9.3957   -1.7750    0.0000 H       1  UNL1        0.0307
     34 H           4.9966   -1.7750    0.0000 H       1  UNL1        0.0377
     35 H           4.1996   -1.7750    0.0000 H       1  UNL1        0.0377
     36 H          10.6603   -3.3700    0.0000 H       1  UNL1        0.0572
     37 H          14.3364    1.6674    0.0000 H       1  UNL1        0.0268
     38 H          14.7349    2.3577    0.0000 H       1  UNL1        0.0268
     39 H          13.0463    2.3326    0.0000 H       1  UNL1        0.0307
     40 H          12.6477    1.6423    0.0000 H       1  UNL1        0.0307
     41 H          13.9123    3.8326    0.0000 H       1  UNL1        0.0263
     42 H          13.5138    3.1423    0.0000 H       1  UNL1        0.0263
     43 H          12.0632   -2.5600    0.0000 H       1  UNL1        0.0614
     44 H          13.7953    0.4400    0.0000 H       1  UNL1        0.0572
     45 H          15.3004    3.2131    0.0000 H       1  UNL1        0.0230
     46 H          15.5273    4.0600    0.0000 H       1  UNL1        0.0230
     47 H          14.6804    4.2869    0.0000 H       1  UNL1        0.0230
     48 H          10.9893   -0.9400    0.0000 H       1  UNL1        0.0617
     49 H          11.8554    0.5600    0.0000 H       1  UNL1        0.0614
     50 H          12.9292   -1.0600    0.0000 H       1  UNL1        0.0617
     51 H           1.6900   -2.2131    0.0000 H       1  UNL1        0.0661
     52 H           1.4631   -3.0600    0.0000 H       1  UNL1        0.0661
     53 H           2.3100   -3.2869    0.0000 H       1  UNL1        0.0661
@<TRIPOS>BOND
     1     1    11    1
     2     1    21    1
     3     2    11    2
     4     3     4    1
     5     3     5    1
     6     3    22    1
     7     3    23    1
     8     4     6    1
     9     4    24    1
    10     4    25    1
    11     5     7    1
    12     5    26    1
    13     5    27    1
    14     6     8    1
    15     6    28    1
    16     6    29    1
    17     7     9    1
    18     7    30    1
    19     7    31    1
    20     8    10    1
    21     8    32    1
    22     8    33    1
    23     9    11    1
    24     9    34    1
    25     9    35    1
    26    10    15    2
    27    10    36    1
    28    12    13    1
    29    12    14    1
    30    12    37    1
    31    12    38    1
    32    13    16    1
    33    13    39    1
    34    13    40    1
    35    14    17    1
    36    14    41    1
    37    14    42    1
    38    15    18    1
    39    15    43    1
    40    16    19    2
    41    16    44    1
    42    17    45    1
    43    17    46    1
    44    17    47    1
    45    18    20    2
    46    18    48    1
    47    19    20    1
    48    19    49    1
    49    20    50    1
    50    21    51    1
    51    21    52    1
    52    21    53    1
