@<TRIPOS>MOLECULE
IMPHY001342
 90 95 0 0 0
SMALL
GASTEIGER

@<TRIPOS>ATOM
      1 O           6.9677    0.9634    0.0000 O.3     1  UNL1       -0.3680
      2 O           4.1952   -1.3144    0.0000 O.3     1  UNL1       -0.3799
      3 O           7.8471   -1.0468    0.0000 O.3     1  UNL1       -0.4562
      4 O           3.7041   -2.5370    0.0000 O.3     1  UNL1       -0.4582
      5 O           4.8816    3.4405    0.0000 O.3     1  UNL1       -0.4545
      6 O           2.4986    2.2784    0.0000 O.3     1  UNL1       -0.4606
      7 O           8.3320   -4.3414    0.0000 O.2     1  UNL1       -0.4708
      8 O           6.3155    4.3414    0.0000 O.2     1  UNL1       -0.2507
      9 O           2.0000    0.5799    0.0000 O.2     1  UNL1       -0.2508
     10 O           8.1352    0.6611    0.0000 O.2     1  UNL1       -0.2479
     11 O           3.9410   -4.2528    0.0000 O.2     1  UNL1       -0.2512
     12 O           9.8192   -1.3794    0.0000 O.3     1  UNL1       -0.3803
     13 C           6.1983   -1.6761    0.0000 C.3     1  UNL1        0.0504
     14 C           5.5176    0.2651    0.0000 C.3     1  UNL1        0.0206
     15 C           5.3816    1.2498    0.0000 C.3     1  UNL1        0.0108
     16 C           5.1793   -1.4921    0.0000 C.3     1  UNL1        0.1331
     17 C           6.4959    0.0885    0.0000 C.3     1  UNL1        0.1036
     18 C           6.8610   -0.8805    0.0000 C.3     1  UNL1        0.1386
     19 C           6.3347   -2.6963    0.0000 C.3     1  UNL1        0.0025
     20 C           4.8367   -0.5149    0.0000 C.2     1  UNL1       -0.0351
     21 C           6.2826    1.6837    0.0000 C.3     1  UNL1        0.0756
     22 C           4.6947   -2.4002    0.0000 C.3     1  UNL1        0.1366
     23 C           4.4807    1.6837    0.0000 C.3     1  UNL1        0.0204
     24 C           5.4073   -3.1430    0.0000 C.3     1  UNL1       -0.0049
     25 C           7.1824   -1.8538    0.0000 C.3     1  UNL1       -0.0524
     26 C           4.2582    2.6586    0.0000 C.3     1  UNL1        0.1483
     27 C           4.4807    0.8160    0.0000 C.3     1  UNL1       -0.0562
     28 C           6.5051    2.6586    0.0000 C.3     1  UNL1        0.0717
     29 C           3.7281    0.9635    0.0000 C.3     1  UNL1        0.0521
     30 C           7.2149   -3.1710    0.0000 C.ar    1  UNL1       -0.0057
     31 C           3.8547   -0.3259    0.0000 C.2     1  UNL1       -0.0962
     32 C           3.2676    2.9810    0.0000 C.3     1  UNL1        0.1321
     33 C           5.8816    3.4405    0.0000 C.2     1  UNL1        0.3102
     34 C           4.0356    3.6336    0.0000 C.3     1  UNL1       -0.0213
     35 C           2.7304    1.2629    0.0000 C.2     1  UNL1        0.3076
     36 C           8.1162   -2.7379    0.0000 C.ar    1  UNL1       -0.0205
     37 C           7.3482   -4.1620    0.0000 C.ar    1  UNL1        0.0951
     38 C           8.4842   -0.2760    0.0000 C.2     1  UNL1        0.3366
     39 C           3.3272   -3.4633    0.0000 C.2     1  UNL1        0.3043
     40 C           8.8066   -3.4613    0.0000 C.ar    1  UNL1        0.0919
     41 C           9.4702   -0.4423    0.0000 C.3     1  UNL1        0.1541
     42 C           2.3366   -3.6001    0.0000 C.3     1  UNL1        0.0332
     43 C          10.1073    0.3285    0.0000 C.3     1  UNL1       -0.0076
     44 C          11.0934    0.1622    0.0000 C.3     1  UNL1       -0.0504
     45 C           9.7583    1.2656    0.0000 C.3     1  UNL1       -0.0595
     46 C          11.7304    0.9330    0.0000 C.3     1  UNL1       -0.0649
     47 H           4.7032    0.5083    0.0000 H       1  UNL1        0.0379
     48 H           7.3440    0.0315    0.0000 H       1  UNL1        0.0639
     49 H           7.2551   -0.4018    0.0000 H       1  UNL1        0.0767
     50 H           6.3205   -3.3162    0.0000 H       1  UNL1        0.0358
     51 H           7.1023    1.9088    0.0000 H       1  UNL1        0.0607
     52 H           4.3400   -1.8916    0.0000 H       1  UNL1        0.0767
     53 H           5.1452    2.2137    0.0000 H       1  UNL1        0.0352
     54 H           4.9173   -3.5228    0.0000 H       1  UNL1        0.0308
     55 H           5.7335   -3.6702    0.0000 H       1  UNL1        0.0308
     56 H           7.0722   -2.4639    0.0000 H       1  UNL1        0.0237
     57 H           7.7925   -1.9640    0.0000 H       1  UNL1        0.0237
     58 H           7.2925   -1.2437    0.0000 H       1  UNL1        0.0237
     59 H           4.2117    1.3746    0.0000 H       1  UNL1        0.0236
     60 H           3.9221    0.5469    0.0000 H       1  UNL1        0.0236
     61 H           4.7497    0.2574    0.0000 H       1  UNL1        0.0236
     62 H           7.0637    2.3896    0.0000 H       1  UNL1        0.0403
     63 H           6.8917    3.1434    0.0000 H       1  UNL1        0.0403
     64 H           3.4510    0.4089    0.0000 H       1  UNL1        0.0382
     65 H           4.2271    0.5956    0.0000 H       1  UNL1        0.0382
     66 H           3.7947   -1.7877    0.0000 H       1  UNL1        0.2108
     67 H           3.6518    0.2600    0.0000 H       1  UNL1        0.0535
     68 H           3.4488   -0.7945    0.0000 H       1  UNL1        0.0535
     69 H           3.5576    3.5290    0.0000 H       1  UNL1        0.0738
     70 H           2.7773    3.3604    0.0000 H       1  UNL1        0.0738
     71 H           4.6401    3.7715    0.0000 H       1  UNL1        0.0269
     72 H           3.8977    4.2380    0.0000 H       1  UNL1        0.0269
     73 H           3.4312    3.4956    0.0000 H       1  UNL1        0.0269
     74 H           8.2274   -2.1279    0.0000 H       1  UNL1        0.0652
     75 H           6.8997   -4.5901    0.0000 H       1  UNL1        0.1032
     76 H           9.4211   -3.3786    0.0000 H       1  UNL1        0.1029
     77 H           9.0752   -0.9202    0.0000 H       1  UNL1        0.0713
     78 H           2.2518   -2.9859    0.0000 H       1  UNL1        0.0342
     79 H           1.7225   -3.6849    0.0000 H       1  UNL1        0.0342
     80 H           2.4215   -4.2143    0.0000 H       1  UNL1        0.0342
     81 H           9.4959    0.4316    0.0000 H       1  UNL1        0.0328
     82 H          10.4306   -1.4826    0.0000 H       1  UNL1        0.2105
     83 H          10.8857   -0.4220    0.0000 H       1  UNL1        0.0266
     84 H          11.6326   -0.1438    0.0000 H       1  UNL1        0.0266
     85 H          10.3393    1.4820    0.0000 H       1  UNL1        0.0233
     86 H           9.5419    1.8466    0.0000 H       1  UNL1        0.0233
     87 H           9.1773    1.0492    0.0000 H       1  UNL1        0.0233
     88 H          12.2083    0.5380    0.0000 H       1  UNL1        0.0230
     89 H          12.1254    1.4109    0.0000 H       1  UNL1        0.0230
     90 H          11.2525    1.3280    0.0000 H       1  UNL1        0.0230
@<TRIPOS>BOND
     1     1    17    1
     2     1    21    1
     3    16     2    1
     4     2    66    1
     5    18     3    1
     6     3    38    1
     7    22     4    1
     8     4    39    1
     9     5    26    1
    10     5    33    1
    11     6    32    1
    12     6    35    1
    13     7    37   ar
    14     7    40   ar
    15     8    33    2
    16     9    35    2
    17    10    38    2
    18    11    39    2
    19    41    12    1
    20    12    82    1
    21    13    16    1
    22    13    18    1
    23    13    19    1
    24    13    25    1
    25    14    15    1
    26    14    17    1
    27    14    20    1
    28    14    47    1
    29    15    21    1
    30    15    23    1
    31    15    27    1
    32    16    20    1
    33    16    22    1
    34    17    18    1
    35    17    48    1
    36    18    49    1
    37    19    24    1
    38    19    30    1
    39    19    50    1
    40    20    31    2
    41    21    28    1
    42    21    51    1
    43    22    24    1
    44    22    52    1
    45    23    26    1
    46    23    29    1
    47    23    53    1
    48    24    54    1
    49    24    55    1
    50    25    56    1
    51    25    57    1
    52    25    58    1
    53    26    32    1
    54    26    34    1
    55    27    59    1
    56    27    60    1
    57    27    61    1
    58    28    33    1
    59    28    62    1
    60    28    63    1
    61    29    35    1
    62    29    64    1
    63    29    65    1
    64    30    36   ar
    65    30    37   ar
    66    31    67    1
    67    31    68    1
    68    32    69    1
    69    32    70    1
    70    34    71    1
    71    34    72    1
    72    34    73    1
    73    36    40   ar
    74    36    74    1
    75    37    75    1
    76    38    41    1
    77    39    42    1
    78    40    76    1
    79    41    43    1
    80    41    77    1
    81    42    78    1
    82    42    79    1
    83    42    80    1
    84    43    44    1
    85    43    45    1
    86    43    81    1
    87    44    46    1
    88    44    83    1
    89    44    84    1
    90    45    85    1
    91    45    86    1
    92    45    87    1
    93    46    88    1
    94    46    89    1
    95    46    90    1
