@<TRIPOS>MOLECULE
IMPHY003188
 25 25 0 0 0
SMALL
GASTEIGER

@<TRIPOS>ATOM
      1 O           6.3301   -1.1550    0.0000 O.3     1  UNL1       -0.5061
      2 O           4.5981    1.8450    0.0000 O.3     1  UNL1       -0.5057
      3 O           2.8660    1.8450    0.0000 O.2     1  UNL1       -0.2922
      4 C           5.4641    0.3450    0.0000 C.ar    1  UNL1        0.0332
      5 C           4.5981   -1.1550    0.0000 C.ar    1  UNL1       -0.0079
      6 C           3.7320    0.3450    0.0000 C.ar    1  UNL1        0.0592
      7 C           5.4641   -0.6550    0.0000 C.ar    1  UNL1        0.1261
      8 C           4.5981    0.8450    0.0000 C.ar    1  UNL1        0.1337
      9 C           3.7320   -0.6550    0.0000 C.ar    1  UNL1       -0.0414
     10 C           6.3301    0.8450    0.0000 C.3     1  UNL1       -0.0327
     11 C           4.5981   -2.1550    0.0000 C.3     1  UNL1       -0.0362
     12 C           2.8660    0.8450    0.0000 C.2     1  UNL1        0.1636
     13 C           2.0000    0.3450    0.0000 C.3     1  UNL1       -0.0013
     14 H           3.1951   -0.9650    0.0000 H       1  UNL1        0.0629
     15 H           6.6401    0.3081    0.0000 H       1  UNL1        0.0280
     16 H           6.8671    1.1550    0.0000 H       1  UNL1        0.0280
     17 H           6.0201    1.3819    0.0000 H       1  UNL1        0.0280
     18 H           3.9781   -2.1550    0.0000 H       1  UNL1        0.0279
     19 H           4.5981   -2.7750    0.0000 H       1  UNL1        0.0279
     20 H           5.2181   -2.1550    0.0000 H       1  UNL1        0.0279
     21 H           1.6900    0.8819    0.0000 H       1  UNL1        0.0309
     22 H           1.4631    0.0350    0.0000 H       1  UNL1        0.0309
     23 H           2.3100   -0.1919    0.0000 H       1  UNL1        0.0309
     24 H           6.3301   -1.7750    0.0000 H       1  UNL1        0.2922
     25 H           5.1350    2.1550    0.0000 H       1  UNL1        0.2922
@<TRIPOS>BOND
     1     1     7    1
     2     1    24    1
     3     2     8    1
     4     2    25    1
     5     3    12    2
     6     4     7   ar
     7     4     8   ar
     8     4    10    1
     9     5     7   ar
    10     5     9   ar
    11     5    11    1
    12     6     8   ar
    13     6     9   ar
    14     6    12    1
    15     9    14    1
    16    10    15    1
    17    10    16    1
    18    10    17    1
    19    11    18    1
    20    11    19    1
    21    11    20    1
    22    12    13    1
    23    13    21    1
    24    13    22    1
    25    13    23    1
