@<TRIPOS>MOLECULE
IMPHY014439
 28 27 0 0 0
SMALL
GASTEIGER

@<TRIPOS>ATOM
      1 C           2.8660   -0.2500    0.0000 C.3     1  UNL1       -0.0464
      2 C           3.7320    0.2500    0.0000 C.3     1  UNL1       -0.0473
      3 C           4.5981   -0.2500    0.0000 C.3     1  UNL1       -0.0342
      4 C           2.0000    0.2500    0.0000 C.3     1  UNL1       -0.0627
      5 C           2.8660   -1.2500    0.0000 C.3     1  UNL1       -0.0627
      6 C           5.4641    0.2500    0.0000 C.2     1  UNL1       -0.0838
      7 C           6.3301   -0.2500    0.0000 C.2     1  UNL1       -0.0633
      8 C           7.1962    0.2500    0.0000 C.2     1  UNL1       -0.0578
      9 C           8.0622   -0.2500    0.0000 C.3     1  UNL1       -0.0403
     10 C           7.1962    1.2500    0.0000 C.2     1  UNL1       -0.0958
     11 H           2.8660    0.3700    0.0000 H       1  UNL1        0.0296
     12 H           4.1306    0.7249    0.0000 H       1  UNL1        0.0271
     13 H           3.3335    0.7249    0.0000 H       1  UNL1        0.0271
     14 H           4.1996   -0.7249    0.0000 H       1  UNL1        0.0307
     15 H           4.9966   -0.7249    0.0000 H       1  UNL1        0.0307
     16 H           2.3100    0.7869    0.0000 H       1  UNL1        0.0232
     17 H           1.4631    0.5600    0.0000 H       1  UNL1        0.0232
     18 H           1.6900   -0.2869    0.0000 H       1  UNL1        0.0232
     19 H           2.2460   -1.2500    0.0000 H       1  UNL1        0.0232
     20 H           2.8660   -1.8700    0.0000 H       1  UNL1        0.0232
     21 H           3.4860   -1.2500    0.0000 H       1  UNL1        0.0232
     22 H           5.4641    0.8700    0.0000 H       1  UNL1        0.0572
     23 H           6.3301   -0.8700    0.0000 H       1  UNL1        0.0617
     24 H           7.7522   -0.7869    0.0000 H       1  UNL1        0.0277
     25 H           8.5991   -0.5600    0.0000 H       1  UNL1        0.0277
     26 H           8.3722    0.2869    0.0000 H       1  UNL1        0.0277
     27 H           7.7331    1.5600    0.0000 H       1  UNL1        0.0537
     28 H           6.6592    1.5600    0.0000 H       1  UNL1        0.0537
@<TRIPOS>BOND
     1     1     2    1
     2     1     4    1
     3     1     5    1
     4     1    11    1
     5     2     3    1
     6     2    12    1
     7     2    13    1
     8     3     6    1
     9     3    14    1
    10     3    15    1
    11     4    16    1
    12     4    17    1
    13     4    18    1
    14     5    19    1
    15     5    20    1
    16     5    21    1
    17     6     7    2
    18     6    22    1
    19     7     8    1
    20     7    23    1
    21     8     9    1
    22     8    10    2
    23     9    24    1
    24     9    25    1
    25     9    26    1
    26    10    27    1
    27    10    28    1
