@<TRIPOS>MOLECULE
IMPHY014130
 34 36 0 0 0
SMALL
GASTEIGER

@<TRIPOS>ATOM
      1 O           5.5321   -1.5000    0.0000 O.2     1  UNL1       -0.4036
      2 O           8.9962    2.5000    0.0000 O.3     1  UNL1       -0.4951
      3 O           4.6660   -3.0000    0.0000 O.2     1  UNL1       -0.2444
      4 N           4.6660   -0.0000    0.0000 N.ar    1  UNL1       -0.2122
      5 C           3.8000   -1.5000    0.0000 C.ar    1  UNL1        0.0848
      6 C           3.8000   -0.5000    0.0000 C.ar    1  UNL1        0.0817
      7 C           8.1301    0.0000    0.0000 C.ar    1  UNL1       -0.0214
      8 C           5.5321   -0.5000    0.0000 C.ar    1  UNL1        0.2246
      9 C           2.9061   -2.0347    0.0000 C.ar    1  UNL1       -0.0457
     10 C           2.9061    0.0347    0.0000 C.ar    1  UNL1       -0.0354
     11 C           4.6660   -2.0000    0.0000 C.ar    1  UNL1        0.3477
     12 C           7.2641   -0.5000    0.0000 C.2     1  UNL1       -0.0494
     13 C           8.1301    1.0000    0.0000 C.ar    1  UNL1       -0.0128
     14 C           6.3981    0.0000    0.0000 C.2     1  UNL1        0.0010
     15 C           8.9962   -0.5000    0.0000 C.ar    1  UNL1       -0.0544
     16 C           8.9962    1.5000    0.0000 C.ar    1  UNL1        0.1207
     17 C           2.0000   -1.5208    0.0000 C.ar    1  UNL1       -0.0609
     18 C           2.0000   -0.4792    0.0000 C.ar    1  UNL1       -0.0597
     19 C           9.8622    0.0000    0.0000 C.ar    1  UNL1       -0.0577
     20 C           9.8622    1.0000    0.0000 C.ar    1  UNL1       -0.0199
     21 C           9.8622    3.0000    0.0000 C.3     1  UNL1        0.0788
     22 H           2.9132   -2.6546    0.0000 H       1  UNL1        0.0626
     23 H           2.9132    0.6546    0.0000 H       1  UNL1        0.0639
     24 H           7.2641   -1.1200    0.0000 H       1  UNL1        0.0625
     25 H           7.5932    1.3100    0.0000 H       1  UNL1        0.0660
     26 H           6.3981    0.6200    0.0000 H       1  UNL1        0.0671
     27 H           8.9962   -1.1200    0.0000 H       1  UNL1        0.0623
     28 H           1.4643   -1.8329    0.0000 H       1  UNL1        0.0618
     29 H           1.4643   -0.1671    0.0000 H       1  UNL1        0.0618
     30 H          10.3991   -0.3100    0.0000 H       1  UNL1        0.0619
     31 H          10.3991    1.3100    0.0000 H       1  UNL1        0.0654
     32 H          10.1722    2.4631    0.0000 H       1  UNL1        0.0660
     33 H          10.3991    3.3100    0.0000 H       1  UNL1        0.0660
     34 H           9.5522    3.5369    0.0000 H       1  UNL1        0.0660
@<TRIPOS>BOND
     1     1     8   ar
     2     1    11   ar
     3     2    16    1
     4     2    21    1
     5     3    11    2
     6     4     6   ar
     7     4     8   ar
     8     5     6   ar
     9     5     9   ar
    10     5    11   ar
    11     6    10   ar
    12     7    12    1
    13     7    13   ar
    14     7    15   ar
    15     8    14    1
    16     9    17   ar
    17     9    22    1
    18    10    18   ar
    19    10    23    1
    20    12    14    2
    21    12    24    1
    22    13    16   ar
    23    13    25    1
    24    14    26    1
    25    15    19   ar
    26    15    27    1
    27    16    20   ar
    28    17    18   ar
    29    17    28    1
    30    18    29    1
    31    19    20   ar
    32    19    30    1
    33    20    31    1
    34    21    32    1
    35    21    33    1
    36    21    34    1
