@<TRIPOS>MOLECULE
IMPHY015359
 28 27 0 0 0
SMALL
GASTEIGER

@<TRIPOS>ATOM
      1 O           2.5369    0.7500    0.0000 O.3     1  UNL1       -0.3880
      2 C           6.8671    0.2500    0.0000 C.3     1  UNL1       -0.0496
      3 C           7.7331    0.7500    0.0000 C.3     1  UNL1       -0.0530
      4 C           6.0010    0.7500    0.0000 C.3     1  UNL1       -0.0347
      5 C           8.5991    0.2500    0.0000 C.3     1  UNL1       -0.0559
      6 C           5.1350    0.2500    0.0000 C.2     1  UNL1       -0.0855
      7 C           9.4651    0.7500    0.0000 C.3     1  UNL1       -0.0653
      8 C           4.2690    0.7500    0.0000 C.2     1  UNL1       -0.0601
      9 C           3.4030    0.2500    0.0000 C.3     1  UNL1        0.0705
     10 C           3.4030   -0.7500    0.0000 C.3     1  UNL1       -0.0353
     11 H           6.4685   -0.2249    0.0000 H       1  UNL1        0.0268
     12 H           7.2656   -0.2249    0.0000 H       1  UNL1        0.0268
     13 H           8.1316    1.2250    0.0000 H       1  UNL1        0.0265
     14 H           7.3346    1.2250    0.0000 H       1  UNL1        0.0265
     15 H           6.3996    1.2250    0.0000 H       1  UNL1        0.0307
     16 H           5.6025    1.2250    0.0000 H       1  UNL1        0.0307
     17 H           8.2006   -0.2249    0.0000 H       1  UNL1        0.0263
     18 H           8.9976   -0.2249    0.0000 H       1  UNL1        0.0263
     19 H           5.1350   -0.3700    0.0000 H       1  UNL1        0.0570
     20 H           9.7751    0.2131    0.0000 H       1  UNL1        0.0230
     21 H          10.0021    1.0600    0.0000 H       1  UNL1        0.0230
     22 H           9.1551    1.2869    0.0000 H       1  UNL1        0.0230
     23 H           4.2690    1.3700    0.0000 H       1  UNL1        0.0594
     24 H           3.4030    0.8700    0.0000 H       1  UNL1        0.0635
     25 H           2.7830   -0.7500    0.0000 H       1  UNL1        0.0258
     26 H           3.4030   -1.3700    0.0000 H       1  UNL1        0.0258
     27 H           4.0230   -0.7500    0.0000 H       1  UNL1        0.0258
     28 H           2.0000    0.4400    0.0000 H       1  UNL1        0.2102
@<TRIPOS>BOND
     1     1     9    1
     2     1    28    1
     3     2     3    1
     4     2     4    1
     5     2    11    1
     6     2    12    1
     7     3     5    1
     8     3    13    1
     9     3    14    1
    10     4     6    1
    11     4    15    1
    12     4    16    1
    13     5     7    1
    14     5    17    1
    15     5    18    1
    16     6     8    2
    17     6    19    1
    18     7    20    1
    19     7    21    1
    20     7    22    1
    21     8     9    1
    22     8    23    1
    23     9    10    1
    24     9    24    1
    25    10    25    1
    26    10    26    1
    27    10    27    1
