@<TRIPOS>MOLECULE
IMPHY010733
 18 20 0 0 0
SMALL
GASTEIGER

@<TRIPOS>ATOM
      1 O           8.2103    0.5547    0.0000 O.2     1  UNL1       -0.4346
      2 O           6.3981   -2.2500    0.0000 O.2     1  UNL1       -0.2864
      3 O           2.8679    0.7741    0.0000 O.3     1  UNL1       -0.4714
      4 N           6.3981    0.7500    0.0000 N.ar    1  UNL1       -0.2986
      5 C           5.5320    0.2500    0.0000 C.ar    1  UNL1        0.0684
      6 C           7.2641    0.2500    0.0000 C.ar    1  UNL1        0.2145
      7 C           5.5320   -0.7500    0.0000 C.ar    1  UNL1        0.0552
      8 C           7.2641   -0.7500    0.0000 C.ar    1  UNL1        0.0939
      9 C           6.3981    1.7500    0.0000 C.3     1  UNL1        0.1090
     10 C           6.3981   -1.2500    0.0000 C.ar    1  UNL1        0.2015
     11 C           4.6381    0.7847    0.0000 C.ar    1  UNL1        0.0542
     12 C           4.6381   -1.2847    0.0000 C.ar    1  UNL1        0.0077
     13 C           8.2103   -1.0547    0.0000 C.ar    1  UNL1        0.0485
     14 C           3.7320    0.2708    0.0000 C.ar    1  UNL1        0.1402
     15 C           7.2641    2.2500    0.0000 C.3     1  UNL1        0.0266
     16 C           3.7320   -0.7708    0.0000 C.ar    1  UNL1        0.0371
     17 C           8.7939   -0.2500    0.0000 C.ar    1  UNL1        0.1816
     18 C           2.0000    0.2775    0.0000 C.3     1  UNL1        0.2525
@<TRIPOS>BOND
     1     1     6   ar
     2     1    17   ar
     3     2    10    2
     4     3    14    1
     5     3    18    1
     6     4     5   ar
     7     4     6   ar
     8     4     9    1
     9     5     7   ar
    10     5    11   ar
    11     6     8   ar
    12     7    10   ar
    13     7    12   ar
    14     8    10   ar
    15     8    13   ar
    16     9    15    1
    17    11    14   ar
    18    12    16   ar
    19    13    17   ar
    20    14    16   ar
