@<TRIPOS>MOLECULE
IMPHY009069
 30 33 0 0 0
SMALL
GASTEIGER

@<TRIPOS>ATOM
      1 O           2.8068   -1.5700    0.0000 O.3     1  UNL1       -0.4873
      2 O           4.4638   -2.7739    0.0000 O.3     1  UNL1       -0.5017
      3 O           3.0366    0.4654    0.0000 O.2     1  UNL1       -0.2632
      4 N           4.7967    0.2772    0.0000 N.ar    1  UNL1       -0.2710
      5 N           6.4165   -1.7937    0.0000 N.ar    1  UNL1       -0.2496
      6 C           5.6057   -0.3106    0.0000 C.ar    1  UNL1        0.0869
      7 C           6.4147    0.2772    0.0000 C.ar    1  UNL1        0.0117
      8 C           5.1057    1.2283    0.0000 C.ar    1  UNL1        0.0580
      9 C           6.1057    1.2283    0.0000 C.ar    1  UNL1        0.0082
     10 C           5.5128   -1.3480    0.0000 C.ar    1  UNL1        0.1334
     11 C           3.8387   -0.1317    0.0000 C.ar    1  UNL1        0.3019
     12 C           4.5646   -1.7790    0.0000 C.ar    1  UNL1        0.1920
     13 C           7.2710   -0.2537    0.0000 C.ar    1  UNL1       -0.0338
     14 C           3.7218   -1.1668    0.0000 C.ar    1  UNL1        0.2292
     15 C           4.5711    2.1222    0.0000 C.ar    1  UNL1       -0.0371
     16 C           6.6404    2.1222    0.0000 C.ar    1  UNL1       -0.0520
     17 C           7.2719   -1.2613    0.0000 C.ar    1  UNL1        0.0291
     18 C           5.0849    3.0283    0.0000 C.ar    1  UNL1       -0.0598
     19 C           6.1265    3.0283    0.0000 C.ar    1  UNL1       -0.0611
     20 C           2.0000   -0.9791    0.0000 C.3     1  UNL1        0.0792
     21 H           7.8127    0.0480    0.0000 H       1  UNL1        0.0639
     22 H           3.9511    2.1151    0.0000 H       1  UNL1        0.0638
     23 H           7.2604    2.1151    0.0000 H       1  UNL1        0.0624
     24 H           7.8140   -1.5621    0.0000 H       1  UNL1        0.0830
     25 H           4.7728    3.5640    0.0000 H       1  UNL1        0.0618
     26 H           6.4386    3.5640    0.0000 H       1  UNL1        0.0618
     27 H           3.8984   -3.0283    0.0000 H       1  UNL1        0.2924
     28 H           2.3664   -0.4789    0.0000 H       1  UNL1        0.0660
     29 H           1.4998   -0.6127    0.0000 H       1  UNL1        0.0660
     30 H           1.6336   -1.4793    0.0000 H       1  UNL1        0.0660
@<TRIPOS>BOND
     1     1    14    1
     2     1    20    1
     3     2    12    1
     4     2    27    1
     5     3    11    2
     6     4     6   ar
     7     4     8   ar
     8     4    11   ar
     9     5    10   ar
    10     5    17   ar
    11     6     7   ar
    12     6    10   ar
    13     7     9   ar
    14     7    13   ar
    15     8     9   ar
    16     8    15   ar
    17     9    16   ar
    18    10    12   ar
    19    11    14   ar
    20    12    14   ar
    21    13    17   ar
    22    13    21    1
    23    15    18   ar
    24    15    22    1
    25    16    19   ar
    26    16    23    1
    27    17    24    1
    28    18    19   ar
    29    18    25    1
    30    19    26    1
    31    20    28    1
    32    20    29    1
    33    20    30    1
