@<TRIPOS>MOLECULE
IMPHY009869
 81 84 0 0 0
SMALL
GASTEIGER

@<TRIPOS>ATOM
      1 O          11.6495    4.3479    0.0000 O.3     1  UNL1       -0.3907
      2 C           6.5251   -0.3776    0.0000 C.3     1  UNL1       -0.0225
      3 C           6.5251   -1.3776    0.0000 C.3     1  UNL1       -0.0140
      4 C           4.7931   -1.3776    0.0000 C.3     1  UNL1       -0.0139
      5 C           3.8831   -1.8844    0.0000 C.3     1  UNL1       -0.0222
      6 C           7.4714   -0.0728    0.0000 C.3     1  UNL1       -0.0325
      7 C           5.6591   -1.8776    0.0000 C.2     1  UNL1       -0.0662
      8 C           3.8751   -2.9260    0.0000 C.3     1  UNL1       -0.0291
      9 C           5.6591    0.1224    0.0000 C.3     1  UNL1       -0.0463
     10 C           4.7931   -0.3776    0.0000 C.3     1  UNL1       -0.0455
     11 C           7.4714   -1.6823    0.0000 C.3     1  UNL1       -0.0457
     12 C           8.0550   -0.8776    0.0000 C.3     1  UNL1       -0.0489
     13 C           2.9562   -1.3204    0.0000 C.3     1  UNL1       -0.0468
     14 C           2.9396   -3.4758    0.0000 C.3     1  UNL1       -0.0403
     15 C           4.7771   -3.4468    0.0000 C.3     1  UNL1       -0.0309
     16 C           7.7820    0.8777    0.0000 C.3     1  UNL1       -0.0402
     17 C           6.5251    0.6224    0.0000 C.3     1  UNL1       -0.0588
     18 C           5.6752   -2.9191    0.0000 C.2     1  UNL1       -0.0839
     19 C           3.8908   -0.8845    0.0000 C.3     1  UNL1       -0.0587
     20 C           2.0084   -1.8483    0.0000 C.3     1  UNL1       -0.0523
     21 C           2.0000   -2.9332    0.0000 C.3     1  UNL1       -0.0502
     22 C           8.7605    1.0839    0.0000 C.3     1  UNL1       -0.0465
     23 C           2.9435   -4.4757    0.0000 C.3     1  UNL1       -0.0621
     24 C           7.1142    1.6220    0.0000 C.3     1  UNL1       -0.0621
     25 C           9.0712    2.0344    0.0000 C.3     1  UNL1       -0.0312
     26 C          10.0497    2.2406    0.0000 C.2     1  UNL1       -0.0687
     27 C          10.7175    1.4963    0.0000 C.3     1  UNL1       -0.0343
     28 C          10.3604    3.1912    0.0000 C.2     1  UNL1       -0.0483
     29 C          11.6960    1.7026    0.0000 C.3     1  UNL1       -0.0616
     30 C          11.3389    3.3974    0.0000 C.3     1  UNL1        0.0653
     31 C           9.6925    3.9354    0.0000 C.3     1  UNL1       -0.0414
     32 H           6.6151   -2.2228    0.0000 H       1  UNL1        0.0351
     33 H           5.5292   -0.9526    0.0000 H       1  UNL1        0.0351
     34 H           8.3111    0.0590    0.0000 H       1  UNL1        0.0309
     35 H           3.8774   -3.5460    0.0000 H       1  UNL1        0.0312
     36 H           6.0576    0.5974    0.0000 H       1  UNL1        0.0271
     37 H           5.2606    0.5974    0.0000 H       1  UNL1        0.0271
     38 H           4.5810    0.2050    0.0000 H       1  UNL1        0.0271
     39 H           4.1825   -0.4852    0.0000 H       1  UNL1        0.0271
     40 H           7.2203   -2.2492    0.0000 H       1  UNL1        0.0271
     41 H           8.0087   -1.9915    0.0000 H       1  UNL1        0.0271
     42 H           8.5158   -1.2923    0.0000 H       1  UNL1        0.0268
     43 H           8.5158   -0.4629    0.0000 H       1  UNL1        0.0268
     44 H           3.3645   -0.8537    0.0000 H       1  UNL1        0.0271
     45 H           2.5663   -0.8383    0.0000 H       1  UNL1        0.0271
     46 H           3.4784   -3.7826    0.0000 H       1  UNL1        0.0301
     47 H           4.3798   -3.9228    0.0000 H       1  UNL1        0.0310
     48 H           5.1781   -3.9197    0.0000 H       1  UNL1        0.0310
     49 H           7.9746    1.4670    0.0000 H       1  UNL1        0.0301
     50 H           7.1451    0.6224    0.0000 H       1  UNL1        0.0235
     51 H           6.5251    1.2424    0.0000 H       1  UNL1        0.0235
     52 H           5.9051    0.6224    0.0000 H       1  UNL1        0.0235
     53 H           6.2157   -3.2229    0.0000 H       1  UNL1        0.0572
     54 H           4.5108   -0.8892    0.0000 H       1  UNL1        0.0235
     55 H           3.8956   -0.2645    0.0000 H       1  UNL1        0.0235
     56 H           3.2708   -0.8797    0.0000 H       1  UNL1        0.0235
     57 H           1.8038   -1.2630    0.0000 H       1  UNL1        0.0266
     58 H           1.3967   -1.9497    0.0000 H       1  UNL1        0.0266
     59 H           1.3900   -2.8225    0.0000 H       1  UNL1        0.0268
     60 H           1.7864   -3.5153    0.0000 H       1  UNL1        0.0268
     61 H           8.7811    0.4642    0.0000 H       1  UNL1        0.0271
     62 H           9.3743    0.9965    0.0000 H       1  UNL1        0.0271
     63 H           2.3235   -4.4781    0.0000 H       1  UNL1        0.0233
     64 H           2.9459   -5.0957    0.0000 H       1  UNL1        0.0233
     65 H           3.5635   -4.4734    0.0000 H       1  UNL1        0.0233
     66 H           7.5756    2.0360    0.0000 H       1  UNL1        0.0233
     67 H           6.7001    2.0834    0.0000 H       1  UNL1        0.0233
     68 H           6.6527    1.2079    0.0000 H       1  UNL1        0.0233
     69 H           9.0506    2.6541    0.0000 H       1  UNL1        0.0310
     70 H           8.4574    2.1218    0.0000 H       1  UNL1        0.0310
     71 H          10.1912    1.1687    0.0000 H       1  UNL1        0.0307
     72 H          10.9488    0.9211    0.0000 H       1  UNL1        0.0307
     73 H          11.8239    1.0959    0.0000 H       1  UNL1        0.0233
     74 H          12.3027    1.8304    0.0000 H       1  UNL1        0.0233
     75 H          11.5682    2.3092    0.0000 H       1  UNL1        0.0233
     76 H          11.3594    2.7777    0.0000 H       1  UNL1        0.0604
     77 H          11.9527    3.3100    0.0000 H       1  UNL1        0.0604
     78 H          10.1540    4.3495    0.0000 H       1  UNL1        0.0275
     79 H           9.2784    4.3969    0.0000 H       1  UNL1        0.0275
     80 H           9.2310    3.5214    0.0000 H       1  UNL1        0.0275
     81 H          12.2562    4.4757    0.0000 H       1  UNL1        0.2098
@<TRIPOS>BOND
     1     1    30    1
     2     1    81    1
     3     2     3    1
     4     2     6    1
     5     2     9    1
     6     2    17    1
     7     3     7    1
     8     3    11    1
     9     3    32    1
    10     4     5    1
    11     4     7    1
    12     4    10    1
    13     4    33    1
    14     5     8    1
    15     5    13    1
    16     5    19    1
    17     6    12    1
    18     6    16    1
    19     6    34    1
    20     7    18    2
    21     8    14    1
    22     8    15    1
    23     8    35    1
    24     9    10    1
    25     9    36    1
    26     9    37    1
    27    10    38    1
    28    10    39    1
    29    11    12    1
    30    11    40    1
    31    11    41    1
    32    12    42    1
    33    12    43    1
    34    13    20    1
    35    13    44    1
    36    13    45    1
    37    14    21    1
    38    14    23    1
    39    14    46    1
    40    15    18    1
    41    15    47    1
    42    15    48    1
    43    16    22    1
    44    16    24    1
    45    16    49    1
    46    17    50    1
    47    17    51    1
    48    17    52    1
    49    18    53    1
    50    19    54    1
    51    19    55    1
    52    19    56    1
    53    20    21    1
    54    20    57    1
    55    20    58    1
    56    21    59    1
    57    21    60    1
    58    22    25    1
    59    22    61    1
    60    22    62    1
    61    23    63    1
    62    23    64    1
    63    23    65    1
    64    24    66    1
    65    24    67    1
    66    24    68    1
    67    25    26    1
    68    25    69    1
    69    25    70    1
    70    26    27    1
    71    26    28    2
    72    27    29    1
    73    27    71    1
    74    27    72    1
    75    28    30    1
    76    28    31    1
    77    29    73    1
    78    29    74    1
    79    29    75    1
    80    30    76    1
    81    30    77    1
    82    31    78    1
    83    31    79    1
    84    31    80    1
