@<TRIPOS>MOLECULE
IMPHY005612
 61 64 0 0 0
SMALL
GASTEIGER

@<TRIPOS>ATOM
      1 O           8.3834   -2.4658    0.0000 O.3     1  UNL1       -0.3612
      2 O           8.4469   -0.1791    0.0000 O.3     1  UNL1       -0.4546
      3 O           6.1586    1.0463    0.0000 O.3     1  UNL1       -0.4544
      4 O           6.5416    3.4096    0.0000 O.3     1  UNL1       -0.3535
      5 O           4.2404    0.2644    0.0000 O.3     1  UNL1       -0.4527
      6 O           8.9085    1.5362    0.0000 O.2     1  UNL1       -0.2453
      7 O           4.5113    1.5815    0.0000 O.2     1  UNL1       -0.2475
      8 O           2.9945   -2.0228    0.0000 O.3     1  UNL1       -0.4646
      9 O           2.6835   -0.7754    0.0000 O.2     1  UNL1       -0.2452
     10 O           2.5252    0.0233    0.0000 O.2     1  UNL1       -0.2511
     11 C           7.3884   -2.5701    0.0000 C.3     1  UNL1        0.0972
     12 C           7.7952   -1.6566    0.0000 C.3     1  UNL1        0.1255
     13 C           7.5873   -0.6784    0.0000 C.3     1  UNL1        0.1425
     14 C           6.8441   -0.0093    0.0000 C.3     1  UNL1        0.0708
     15 C           6.5224   -3.0701    0.0000 C.3     1  UNL1       -0.0180
     16 C           5.8496    0.0952    0.0000 C.3     1  UNL1        0.1546
     17 C           6.9817   -3.4836    0.0000 C.3     1  UNL1       -0.0332
     18 C           7.2508    0.8978    0.0000 C.2     1  UNL1        0.0399
     19 C           5.5279   -2.9656    0.0000 C.3     1  UNL1       -0.0312
     20 C           4.9836   -0.4048    0.0000 C.3     1  UNL1        0.1716
     21 C           8.2393    0.7930    0.0000 C.2     1  UNL1        0.3355
     22 C           5.7985    2.7405    0.0000 C.3     1  UNL1        0.1885
     23 C           4.5768   -1.3183    0.0000 C.2     1  UNL1        0.0764
     24 C           4.7847   -2.2964    0.0000 C.2     1  UNL1       -0.0703
     25 C           6.7496    2.4315    0.0000 C.3     1  UNL1        0.0965
     26 C           5.4895    1.7894    0.0000 C.2     1  UNL1        0.3421
     27 C           6.7523    1.7647    0.0000 C.2     1  UNL1       -0.0882
     28 C           5.1294    3.4836    0.0000 C.3     1  UNL1       -0.0228
     29 C           7.4187    1.6883    0.0000 C.3     1  UNL1       -0.0354
     30 C           3.5823   -1.2138    0.0000 C.2     1  UNL1        0.3383
     31 C           3.3133    0.6390    0.0000 C.2     1  UNL1        0.3046
     32 C           3.1741    1.6292    0.0000 C.3     1  UNL1        0.0333
     33 C           2.0000   -1.9183    0.0000 C.3     1  UNL1        0.0820
     34 H           8.5716   -1.3107    0.0000 H       1  UNL1        0.0662
     35 H           8.3642   -1.0231    0.0000 H       1  UNL1        0.0769
     36 H           6.4201    0.7274    0.0000 H       1  UNL1        0.0425
     37 H           6.2702   -3.6365    0.0000 H       1  UNL1        0.0297
     38 H           6.3935   -2.4636    0.0000 H       1  UNL1        0.0297
     39 H           5.3678    0.4854    0.0000 H       1  UNL1        0.0782
     40 H           6.4153   -3.2315    0.0000 H       1  UNL1        0.0258
     41 H           6.7295   -4.0500    0.0000 H       1  UNL1        0.0258
     42 H           7.5481   -3.7358    0.0000 H       1  UNL1        0.0258
     43 H           4.9910   -3.2756    0.0000 H       1  UNL1        0.0308
     44 H           5.6568   -3.5720    0.0000 H       1  UNL1        0.0308
     45 H           5.0484    0.2119    0.0000 H       1  UNL1        0.0826
     46 H           4.2478   -2.6064    0.0000 H       1  UNL1        0.0578
     47 H           7.3020    2.7130    0.0000 H       1  UNL1        0.0628
     48 H           7.0632    2.3011    0.0000 H       1  UNL1        0.0540
     49 H           6.1323    1.7658    0.0000 H       1  UNL1        0.0540
     50 H           5.5901    3.8985    0.0000 H       1  UNL1        0.0264
     51 H           4.7145    3.9444    0.0000 H       1  UNL1        0.0264
     52 H           4.6686    3.0688    0.0000 H       1  UNL1        0.0264
     53 H           6.9579    1.2735    0.0000 H       1  UNL1        0.0256
     54 H           7.8335    1.2276    0.0000 H       1  UNL1        0.0256
     55 H           7.8794    2.1032    0.0000 H       1  UNL1        0.0256
     56 H           3.7880    1.7156    0.0000 H       1  UNL1        0.0342
     57 H           3.0878    2.2432    0.0000 H       1  UNL1        0.0342
     58 H           2.5601    1.5430    0.0000 H       1  UNL1        0.0342
     59 H           2.0648   -1.3016    0.0000 H       1  UNL1        0.0661
     60 H           1.3834   -1.8534    0.0000 H       1  UNL1        0.0661
     61 H           1.9352   -2.5349    0.0000 H       1  UNL1        0.0661
@<TRIPOS>BOND
     1     1    11    1
     2     1    12    1
     3     2    13    1
     4     2    21    1
     5    16     3    1
     6     3    26    1
     7     4    22    1
     8     4    25    1
     9    20     5    1
    10     5    31    1
    11     6    21    2
    12     7    26    2
    13     8    30    1
    14     8    33    1
    15     9    30    2
    16    10    31    2
    17    11    12    1
    18    11    15    1
    19    11    17    1
    20    12    13    1
    21    12    34    1
    22    13    14    1
    23    13    35    1
    24    14    16    1
    25    14    18    1
    26    14    36    1
    27    15    19    1
    28    15    37    1
    29    15    38    1
    30    16    20    1
    31    16    39    1
    32    17    40    1
    33    17    41    1
    34    17    42    1
    35    18    21    1
    36    18    27    2
    37    19    24    1
    38    19    43    1
    39    19    44    1
    40    20    23    1
    41    20    45    1
    42    22    25    1
    43    22    26    1
    44    22    28    1
    45    23    24    2
    46    23    30    1
    47    24    46    1
    48    25    29    1
    49    25    47    1
    50    27    48    1
    51    27    49    1
    52    28    50    1
    53    28    51    1
    54    28    52    1
    55    29    53    1
    56    29    54    1
    57    29    55    1
    58    31    32    1
    59    32    56    1
    60    32    57    1
    61    32    58    1
    62    33    59    1
    63    33    60    1
    64    33    61    1
