@<TRIPOS>MOLECULE
IMPHY006871
 41 43 0 0 0
SMALL
GASTEIGER

@<TRIPOS>ATOM
      1 O           7.8805   -1.0547    0.0000 O.3     1  UNL1       -0.4365
      2 O          10.4641   -0.2500    0.0000 O.3     1  UNL1       -0.3855
      3 O           6.0682    1.7500    0.0000 O.3     1  UNL1       -0.4937
      4 O           2.5381    0.7742    0.0000 O.3     1  UNL1       -0.5067
      5 N           6.0682   -1.2500    0.0000 N.ar    1  UNL1       -0.1616
      6 C           8.4641   -0.2500    0.0000 C.3     1  UNL1        0.1383
      7 C           7.8805    0.5547    0.0000 C.3     1  UNL1        0.0256
      8 C           9.4641   -0.2500    0.0000 C.3     1  UNL1        0.0976
      9 C           6.9343    0.2500    0.0000 C.ar    1  UNL1        0.1095
     10 C           6.9343   -0.7500    0.0000 C.ar    1  UNL1        0.3789
     11 C           6.0682    0.7500    0.0000 C.ar    1  UNL1        0.1465
     12 C           9.4641   -1.2500    0.0000 C.3     1  UNL1       -0.0328
     13 C           9.4641    0.7500    0.0000 C.3     1  UNL1       -0.0328
     14 C           5.2022   -0.7500    0.0000 C.ar    1  UNL1        0.2214
     15 C           5.2022    0.2500    0.0000 C.ar    1  UNL1        0.0919
     16 C           6.0682   -2.2500    0.0000 C.3     1  UNL1        0.1446
     17 C           4.3083    0.7847    0.0000 C.ar    1  UNL1       -0.0032
     18 C           4.3083   -1.2847    0.0000 C.ar    1  UNL1        0.0140
     19 C           3.4022    0.2708    0.0000 C.ar    1  UNL1        0.1180
     20 C           3.4022   -0.7708    0.0000 C.ar    1  UNL1       -0.0139
     21 C           5.2022    2.2500    0.0000 C.3     1  UNL1        0.0788
     22 H           8.8503   -1.0072    0.0000 H       1  UNL1        0.0767
     23 H           8.4179    0.8640    0.0000 H       1  UNL1        0.0354
     24 H           7.6295    1.1216    0.0000 H       1  UNL1        0.0354
     25 H          10.0841    0.7500    0.0000 H       1  UNL1        0.0258
     26 H           8.8441   -1.2500    0.0000 H       1  UNL1        0.0258
     27 H           9.4641   -1.8700    0.0000 H       1  UNL1        0.0258
     28 H          10.0841   -1.2500    0.0000 H       1  UNL1        0.0258
     29 H           9.4641    1.3700    0.0000 H       1  UNL1        0.0258
     30 H           8.8441    0.7500    0.0000 H       1  UNL1        0.0258
     31 H          10.7741   -0.7869    0.0000 H       1  UNL1        0.2103
     32 H           5.4482   -2.2500    0.0000 H       1  UNL1        0.0994
     33 H           6.0682   -2.8700    0.0000 H       1  UNL1        0.0994
     34 H           6.6882   -2.2500    0.0000 H       1  UNL1        0.0994
     35 H           4.3154    1.4046    0.0000 H       1  UNL1        0.0663
     36 H           4.3154   -1.9046    0.0000 H       1  UNL1        0.0685
     37 H           2.8665   -1.0829    0.0000 H       1  UNL1        0.0656
     38 H           5.5122    2.7869    0.0000 H       1  UNL1        0.0660
     39 H           4.6653    2.5600    0.0000 H       1  UNL1        0.0660
     40 H           4.8922    1.7131    0.0000 H       1  UNL1        0.0660
     41 H           2.0000    0.4662    0.0000 H       1  UNL1        0.2921
@<TRIPOS>UNITY_ATOM_ATTR
5 1
charge 1
@<TRIPOS>BOND
     1     1     6    1
     2     1    10    1
     3     2     8    1
     4     2    31    1
     5     3    11    1
     6     3    21    1
     7     4    19    1
     8     4    41    1
     9     5    10   ar
    10     5    14   ar
    11     5    16    1
    12     6     7    1
    13     6     8    1
    14     6    22    1
    15     7     9    1
    16     7    23    1
    17     7    24    1
    18     8    12    1
    19     8    13    1
    20     9    10   ar
    21     9    11   ar
    22    11    15   ar
    23    12    26    1
    24    12    27    1
    25    12    28    1
    26    13    25    1
    27    13    29    1
    28    13    30    1
    29    14    15   ar
    30    14    18   ar
    31    15    17   ar
    32    16    32    1
    33    16    33    1
    34    16    34    1
    35    17    19   ar
    36    17    35    1
    37    18    20   ar
    38    18    36    1
    39    19    20   ar
    40    20    37    1
    41    21    38    1
    42    21    39    1
    43    21    40    1
