@<TRIPOS>MOLECULE
IMPHY014750
 30 30 0 0 0
SMALL
GASTEIGER

@<TRIPOS>ATOM
      1 O           2.8660    0.2500    0.0000 O.3     1  UNL1       -0.4944
      2 O           6.3301   -1.7500    0.0000 O.3     1  UNL1       -0.4914
      3 O           4.5981   -2.7500    0.0000 O.3     1  UNL1       -0.4913
      4 O           6.3301    3.2500    0.0000 O.2     1  UNL1       -0.2963
      5 C           4.5981    0.2500    0.0000 C.ar    1  UNL1        0.0204
      6 C           3.7320   -0.2500    0.0000 C.ar    1  UNL1        0.1309
      7 C           5.4641   -1.2500    0.0000 C.ar    1  UNL1        0.1623
      8 C           4.5981   -1.7500    0.0000 C.ar    1  UNL1        0.1650
      9 C           5.4641   -0.2500    0.0000 C.ar    1  UNL1       -0.0057
     10 C           3.7320   -1.2500    0.0000 C.ar    1  UNL1        0.0260
     11 C           4.5981    1.2500    0.0000 C.2     1  UNL1       -0.0480
     12 C           5.4641    1.7500    0.0000 C.2     1  UNL1       -0.0218
     13 C           2.0000   -0.2500    0.0000 C.3     1  UNL1        0.0788
     14 C           7.1962   -1.2500    0.0000 C.3     1  UNL1        0.0790
     15 C           3.7320   -3.2500    0.0000 C.3     1  UNL1        0.0790
     16 C           5.4641    2.7500    0.0000 C.2     1  UNL1        0.1431
     17 H           6.0010    0.0600    0.0000 H       1  UNL1        0.0662
     18 H           3.1951   -1.5600    0.0000 H       1  UNL1        0.0692
     19 H           4.0611    1.5600    0.0000 H       1  UNL1        0.0626
     20 H           6.0010    1.4400    0.0000 H       1  UNL1        0.0650
     21 H           1.6900    0.2869    0.0000 H       1  UNL1        0.0660
     22 H           1.4631   -0.5600    0.0000 H       1  UNL1        0.0660
     23 H           2.3100   -0.7869    0.0000 H       1  UNL1        0.0660
     24 H           7.5062   -1.7869    0.0000 H       1  UNL1        0.0660
     25 H           7.7331   -0.9400    0.0000 H       1  UNL1        0.0660
     26 H           6.8862   -0.7131    0.0000 H       1  UNL1        0.0660
     27 H           3.4220   -2.7131    0.0000 H       1  UNL1        0.0660
     28 H           3.1951   -3.5600    0.0000 H       1  UNL1        0.0660
     29 H           4.0420   -3.7869    0.0000 H       1  UNL1        0.0660
     30 H           4.9272    3.0600    0.0000 H       1  UNL1        0.1075
@<TRIPOS>BOND
     1     1     6    1
     2     1    13    1
     3     2     7    1
     4     2    14    1
     5     3     8    1
     6     3    15    1
     7     4    16    2
     8     5     6   ar
     9     5     9   ar
    10     5    11    1
    11     6    10   ar
    12     7     8   ar
    13     7     9   ar
    14     8    10   ar
    15     9    17    1
    16    10    18    1
    17    11    12    2
    18    11    19    1
    19    12    16    1
    20    12    20    1
    21    13    21    1
    22    13    22    1
    23    13    23    1
    24    14    24    1
    25    14    25    1
    26    14    26    1
    27    15    27    1
    28    15    28    1
    29    15    29    1
    30    16    30    1
