@<TRIPOS>MOLECULE
IMPHY007310
 71 74 0 0 0
SMALL
GASTEIGER

@<TRIPOS>ATOM
      1 O           8.0712   -1.2989    0.0000 O.3     1  UNL1       -0.3599
      2 O           7.2622    2.2888    0.0000 O.3     1  UNL1       -0.4632
      3 O           3.7320    1.3130    0.0000 O.3     1  UNL1       -0.4610
      4 O           9.0712   -3.2011    0.0000 O.3     1  UNL1       -0.3393
      5 O           9.3500   -1.4410    0.0000 O.3     1  UNL1       -0.4322
      6 O           8.1282    3.7888    0.0000 O.2     1  UNL1       -0.2546
      7 O           2.8602   -0.1837    0.0000 O.2     1  UNL1       -0.2512
      8 O          10.7512   -2.4591    0.0000 O.2     1  UNL1       -0.2511
      9 C           6.3961   -0.2112    0.0000 C.3     1  UNL1        0.0042
     10 C           7.2622   -0.7112    0.0000 C.3     1  UNL1        0.0790
     11 C           6.3961    0.7888    0.0000 C.3     1  UNL1        0.0127
     12 C           5.5022    1.3235    0.0000 C.3     1  UNL1        0.0089
     13 C           8.1282   -0.2112    0.0000 C.3     1  UNL1       -0.0108
     14 C           5.5022   -0.7458    0.0000 C.3     1  UNL1       -0.0412
     15 C           7.2622    1.2888    0.0000 C.3     1  UNL1        0.1071
     16 C           6.4532   -1.2989    0.0000 C.3     1  UNL1       -0.0201
     17 C           8.1282    0.7888    0.0000 C.3     1  UNL1       -0.0102
     18 C           7.7622   -2.2500    0.0000 C.3     1  UNL1        0.1343
     19 C           4.5961    0.8097    0.0000 C.3     1  UNL1        0.1085
     20 C           6.7622   -2.2500    0.0000 C.3     1  UNL1       -0.0151
     21 C           4.5961   -0.2320    0.0000 C.3     1  UNL1       -0.0146
     22 C           5.8963   -1.0773    0.0000 C.3     1  UNL1       -0.0565
     23 C           5.0122    2.1952    0.0000 C.3     1  UNL1       -0.0561
     24 C           6.0122    2.1837    0.0000 C.3     1  UNL1       -0.0561
     25 C           8.9942   -0.7112    0.0000 C.3     1  UNL1       -0.0597
     26 C           7.4532   -3.2011    0.0000 C.3     1  UNL1        0.0058
     27 C           8.7622   -2.2500    0.0000 C.3     1  UNL1        0.2340
     28 C           8.2622   -3.7888    0.0000 C.3     1  UNL1        0.0546
     29 C           8.1282    2.7888    0.0000 C.2     1  UNL1        0.2945
     30 C           2.8641    0.8163    0.0000 C.2     1  UNL1        0.3042
     31 C          10.3445   -1.5455    0.0000 C.2     1  UNL1        0.3062
     32 C           2.0000    1.3197    0.0000 C.3     1  UNL1        0.0332
     33 C          10.9323   -0.7365    0.0000 C.3     1  UNL1        0.0333
     34 H           6.4027    1.6388    0.0000 H       1  UNL1        0.0349
     35 H           8.1282   -0.8312    0.0000 H       1  UNL1        0.0327
     36 H           5.1086   -1.2248    0.0000 H       1  UNL1        0.0273
     37 H           5.9068   -1.2156    0.0000 H       1  UNL1        0.0273
     38 H           7.7991    1.5988    0.0000 H       1  UNL1        0.0737
     39 H           6.1432   -0.7620    0.0000 H       1  UNL1        0.0294
     40 H           5.8868   -1.5511    0.0000 H       1  UNL1        0.0294
     41 H           8.7388    0.6812    0.0000 H       1  UNL1        0.0304
     42 H           8.3402    1.3714    0.0000 H       1  UNL1        0.0304
     43 H           4.5997    1.4296    0.0000 H       1  UNL1        0.0739
     44 H           6.1557   -2.3789    0.0000 H       1  UNL1        0.0296
     45 H           6.8270   -2.8666    0.0000 H       1  UNL1        0.0296
     46 H           3.9853   -0.1259    0.0000 H       1  UNL1        0.0301
     47 H           4.3871   -0.8157    0.0000 H       1  UNL1        0.0301
     48 H           5.3593   -0.7673    0.0000 H       1  UNL1        0.0236
     49 H           5.5864   -1.6142    0.0000 H       1  UNL1        0.0236
     50 H           6.4333   -1.3872    0.0000 H       1  UNL1        0.0236
     51 H           5.5527    2.4990    0.0000 H       1  UNL1        0.0236
     52 H           4.7085    2.7357    0.0000 H       1  UNL1        0.0236
     53 H           4.4718    1.8915    0.0000 H       1  UNL1        0.0236
     54 H           6.5455    1.8675    0.0000 H       1  UNL1        0.0236
     55 H           6.3284    2.7170    0.0000 H       1  UNL1        0.0236
     56 H           5.4789    2.4999    0.0000 H       1  UNL1        0.0236
     57 H           8.6842   -1.2481    0.0000 H       1  UNL1        0.0233
     58 H           9.5312   -1.0212    0.0000 H       1  UNL1        0.0233
     59 H           9.3042   -0.1742    0.0000 H       1  UNL1        0.0233
     60 H           6.8868   -2.9489    0.0000 H       1  UNL1        0.0317
     61 H           7.1432   -3.7380    0.0000 H       1  UNL1        0.0317
     62 H           8.4807   -1.6976    0.0000 H       1  UNL1        0.1087
     63 H           7.8473   -4.2496    0.0000 H       1  UNL1        0.0562
     64 H           8.6770   -4.2496    0.0000 H       1  UNL1        0.0562
     65 H           8.6651    2.4788    0.0000 H       1  UNL1        0.1512
     66 H           2.3121    1.8554    0.0000 H       1  UNL1        0.0342
     67 H           1.4643    1.6317    0.0000 H       1  UNL1        0.0342
     68 H           1.6879    0.7839    0.0000 H       1  UNL1        0.0342
     69 H          11.4338   -1.1009    0.0000 H       1  UNL1        0.0342
     70 H          11.2967   -0.2349    0.0000 H       1  UNL1        0.0342
     71 H          10.4307   -0.3721    0.0000 H       1  UNL1        0.0342
@<TRIPOS>BOND
     1    10     1    1
     2    18     1    1
     3    15     2    1
     4     2    29    1
     5    19     3    1
     6     3    30    1
     7     4    27    1
     8     4    28    1
     9    27     5    1
    10     5    31    1
    11     6    29    2
    12     7    30    2
    13     8    31    2
    14     9    10    1
    15     9    11    1
    16     9    14    1
    17     9    22    1
    18    10    13    1
    19    10    16    1
    20    11    12    1
    21    11    15    1
    22    11    34    1
    23    12    19    1
    24    12    23    1
    25    12    24    1
    26    13    17    1
    27    13    25    1
    28    13    35    1
    29    14    21    1
    30    14    36    1
    31    14    37    1
    32    15    17    1
    33    15    38    1
    34    16    20    1
    35    16    39    1
    36    16    40    1
    37    17    41    1
    38    17    42    1
    39    18    20    1
    40    18    26    1
    41    18    27    1
    42    19    21    1
    43    19    43    1
    44    20    44    1
    45    20    45    1
    46    21    46    1
    47    21    47    1
    48    22    48    1
    49    22    49    1
    50    22    50    1
    51    23    51    1
    52    23    52    1
    53    23    53    1
    54    24    54    1
    55    24    55    1
    56    24    56    1
    57    25    57    1
    58    25    58    1
    59    25    59    1
    60    26    28    1
    61    26    60    1
    62    26    61    1
    63    27    62    1
    64    28    63    1
    65    28    64    1
    66    29    65    1
    67    30    32    1
    68    31    33    1
    69    32    66    1
    70    32    67    1
    71    32    68    1
    72    33    69    1
    73    33    70    1
    74    33    71    1
