@<TRIPOS>MOLECULE
IMPHY005333
 37 38 0 0 0
SMALL
GASTEIGER

@<TRIPOS>ATOM
      1 O           7.2204    1.6411    0.0000 O.3     1  UNL1       -0.3842
      2 O           2.8660    2.2500    0.0000 O.2     1  UNL1       -0.2924
      3 C           6.4103    1.0547    0.0000 C.3     1  UNL1        0.0887
      4 C           6.9939    0.2500    0.0000 C.3     1  UNL1       -0.0161
      5 C           5.4641   -0.2500    0.0000 C.ar    1  UNL1       -0.0379
      6 C           5.4641    0.7500    0.0000 C.ar    1  UNL1       -0.0123
      7 C           6.4103   -0.5547    0.0000 C.3     1  UNL1       -0.0242
      8 C           4.5981   -0.7500    0.0000 C.ar    1  UNL1       -0.0406
      9 C           6.1030    2.0063    0.0000 C.3     1  UNL1       -0.0319
     10 C           4.5981   -1.7500    0.0000 C.3     1  UNL1       -0.0212
     11 C           4.5981    1.2500    0.0000 C.ar    1  UNL1       -0.0451
     12 C           3.7320   -0.2500    0.0000 C.ar    1  UNL1       -0.0476
     13 C           3.7320    0.7500    0.0000 C.ar    1  UNL1        0.0177
     14 C           3.7320   -2.2500    0.0000 C.3     1  UNL1       -0.0586
     15 C           5.4641   -2.2500    0.0000 C.3     1  UNL1       -0.0586
     16 C           2.8660    1.2500    0.0000 C.2     1  UNL1        0.1601
     17 C           2.0000    0.7500    0.0000 C.3     1  UNL1       -0.0014
     18 H           7.4548   -0.1647    0.0000 H       1  UNL1        0.0299
     19 H           7.4548    0.6647    0.0000 H       1  UNL1        0.0299
     20 H           6.1593   -1.1216    0.0000 H       1  UNL1        0.0314
     21 H           6.9477   -0.8640    0.0000 H       1  UNL1        0.0314
     22 H           6.6929    2.1969    0.0000 H       1  UNL1        0.0261
     23 H           5.9124    2.5963    0.0000 H       1  UNL1        0.0261
     24 H           5.5130    1.8158    0.0000 H       1  UNL1        0.0261
     25 H           4.5981   -2.3700    0.0000 H       1  UNL1        0.0344
     26 H           4.5981    1.8700    0.0000 H       1  UNL1        0.0628
     27 H           3.1951   -0.5600    0.0000 H       1  UNL1        0.0627
     28 H           7.7863    1.3880    0.0000 H       1  UNL1        0.2106
     29 H           3.4220   -1.7131    0.0000 H       1  UNL1        0.0235
     30 H           5.1541   -2.7869    0.0000 H       1  UNL1        0.0235
     31 H           6.0010   -2.5600    0.0000 H       1  UNL1        0.0235
     32 H           5.7741   -1.7131    0.0000 H       1  UNL1        0.0235
     33 H           3.1951   -2.5600    0.0000 H       1  UNL1        0.0235
     34 H           4.0420   -2.7869    0.0000 H       1  UNL1        0.0235
     35 H           1.6900    1.2869    0.0000 H       1  UNL1        0.0309
     36 H           1.4631    0.4400    0.0000 H       1  UNL1        0.0309
     37 H           2.3100    0.2131    0.0000 H       1  UNL1        0.0309
@<TRIPOS>BOND
     1     1     3    1
     2     1    28    1
     3     2    16    2
     4     3     4    1
     5     3     6    1
     6     3     9    1
     7     4     7    1
     8     4    18    1
     9     4    19    1
    10     5     6   ar
    11     5     7    1
    12     5     8   ar
    13     6    11   ar
    14     7    20    1
    15     7    21    1
    16     8    10    1
    17     8    12   ar
    18     9    22    1
    19     9    23    1
    20     9    24    1
    21    10    14    1
    22    10    15    1
    23    10    25    1
    24    11    13   ar
    25    11    26    1
    26    12    13   ar
    27    12    27    1
    28    13    16    1
    29    14    29    1
    30    14    33    1
    31    14    34    1
    32    15    30    1
    33    15    31    1
    34    15    32    1
    35    16    17    1
    36    17    35    1
    37    17    36    1
    38    17    37    1
