@<TRIPOS>MOLECULE
IMPHY008031
 86 89 0 0 0
SMALL
GASTEIGER

@<TRIPOS>ATOM
      1 O           2.5357   -3.3928    0.0000 O.3     1  UNL1       -0.3912
      2 O           9.8070    2.8158    0.0000 O.3     1  UNL1       -0.3891
      3 O          12.1212    1.5334    0.0000 O.3     1  UNL1       -0.3864
      4 O          12.0747    4.1788    0.0000 O.3     1  UNL1       -0.3865
      5 C           7.9288   -0.3405    0.0000 C.3     1  UNL1       -0.0199
      6 C           7.9288   -1.3405    0.0000 C.3     1  UNL1       -0.0051
      7 C           6.1968   -1.3405    0.0000 C.3     1  UNL1       -0.0137
      8 C           5.2868   -1.8473    0.0000 C.3     1  UNL1       -0.0218
      9 C           8.8750   -0.0358    0.0000 C.3     1  UNL1       -0.0322
     10 C           7.0628   -1.8405    0.0000 C.2     1  UNL1       -0.0634
     11 C           5.2787   -2.8889    0.0000 C.3     1  UNL1       -0.0242
     12 C           7.0628    0.1595    0.0000 C.3     1  UNL1       -0.0460
     13 C           8.8750   -1.6452    0.0000 C.3     1  UNL1       -0.0431
     14 C           6.1968   -0.3405    0.0000 C.3     1  UNL1       -0.0455
     15 C           9.4586   -0.8405    0.0000 C.3     1  UNL1       -0.0486
     16 C           4.3433   -3.4387    0.0000 C.3     1  UNL1       -0.0053
     17 C           4.3599   -1.2833    0.0000 C.3     1  UNL1       -0.0444
     18 C           6.1808   -3.4098    0.0000 C.3     1  UNL1       -0.0306
     19 C           9.1857    0.9148    0.0000 C.3     1  UNL1       -0.0381
     20 C           7.9288    0.6595    0.0000 C.3     1  UNL1       -0.0585
     21 C           7.9288   -2.3405    0.0000 C.3     1  UNL1       -0.0553
     22 C           7.0789   -2.8820    0.0000 C.2     1  UNL1       -0.0836
     23 C           3.4037   -2.8962    0.0000 C.3     1  UNL1        0.0606
     24 C           5.2945   -0.8474    0.0000 C.3     1  UNL1       -0.0587
     25 C           3.4120   -1.8112    0.0000 C.3     1  UNL1       -0.0258
     26 C           3.8467   -4.3066    0.0000 C.3     1  UNL1       -0.0572
     27 C           4.8466   -4.3028    0.0000 C.3     1  UNL1       -0.0572
     28 C          10.1642    1.1210    0.0000 C.3     1  UNL1       -0.0215
     29 C           8.5179    1.6591    0.0000 C.3     1  UNL1       -0.0621
     30 C          10.4749    2.0715    0.0000 C.3     1  UNL1        0.0840
     31 C          11.4534    2.2777    0.0000 C.3     1  UNL1        0.1091
     32 C          11.7640    3.2282    0.0000 C.3     1  UNL1        0.0887
     33 C          12.7146    2.9176    0.0000 C.3     1  UNL1       -0.0338
     34 C          10.8135    3.5389    0.0000 C.3     1  UNL1       -0.0338
     35 H           6.9329   -0.9155    0.0000 H       1  UNL1        0.0351
     36 H           9.7148    0.0961    0.0000 H       1  UNL1        0.0309
     37 H           5.2820   -3.7389    0.0000 H       1  UNL1        0.0315
     38 H           7.4613    0.6345    0.0000 H       1  UNL1        0.0271
     39 H           6.6643    0.6345    0.0000 H       1  UNL1        0.0271
     40 H           8.6240   -2.2121    0.0000 H       1  UNL1        0.0274
     41 H           9.4124   -1.9544    0.0000 H       1  UNL1        0.0274
     42 H           5.9847    0.2421    0.0000 H       1  UNL1        0.0271
     43 H           5.5862   -0.4482    0.0000 H       1  UNL1        0.0271
     44 H           9.9195   -1.2552    0.0000 H       1  UNL1        0.0268
     45 H           9.9195   -0.4258    0.0000 H       1  UNL1        0.0268
     46 H           4.7681   -0.8166    0.0000 H       1  UNL1        0.0272
     47 H           3.9700   -0.8012    0.0000 H       1  UNL1        0.0272
     48 H           5.7835   -3.8857    0.0000 H       1  UNL1        0.0310
     49 H           6.5818   -3.8826    0.0000 H       1  UNL1        0.0310
     50 H           9.3783    1.5041    0.0000 H       1  UNL1        0.0302
     51 H           8.5488    0.6595    0.0000 H       1  UNL1        0.0235
     52 H           7.9288    1.2795    0.0000 H       1  UNL1        0.0235
     53 H           7.3088    0.6595    0.0000 H       1  UNL1        0.0235
     54 H           7.3088   -2.3405    0.0000 H       1  UNL1        0.0238
     55 H           7.9288   -2.9605    0.0000 H       1  UNL1        0.0238
     56 H           8.5488   -2.3405    0.0000 H       1  UNL1        0.0238
     57 H           7.6193   -3.1858    0.0000 H       1  UNL1        0.0572
     58 H           3.4025   -3.5162    0.0000 H       1  UNL1        0.0599
     59 H           5.9145   -0.8522    0.0000 H       1  UNL1        0.0235
     60 H           5.2993   -0.2274    0.0000 H       1  UNL1        0.0235
     61 H           4.6745   -0.8426    0.0000 H       1  UNL1        0.0235
     62 H           3.2075   -1.2259    0.0000 H       1  UNL1        0.0290
     63 H           2.8004   -1.9126    0.0000 H       1  UNL1        0.0290
     64 H           3.3085   -3.9987    0.0000 H       1  UNL1        0.0236
     65 H           4.3109   -4.6148    0.0000 H       1  UNL1        0.0236
     66 H           5.1587   -4.8385    0.0000 H       1  UNL1        0.0236
     67 H           5.3824   -3.9907    0.0000 H       1  UNL1        0.0236
     68 H           3.5387   -4.8447    0.0000 H       1  UNL1        0.0236
     69 H           4.3848   -4.6145    0.0000 H       1  UNL1        0.0236
     70 H          10.1848    0.5013    0.0000 H       1  UNL1        0.0294
     71 H          10.7780    1.0336    0.0000 H       1  UNL1        0.0294
     72 H           8.9793    2.0731    0.0000 H       1  UNL1        0.0233
     73 H           8.1038    2.1205    0.0000 H       1  UNL1        0.0233
     74 H           8.0564    1.2450    0.0000 H       1  UNL1        0.0233
     75 H          10.6675    2.6608    0.0000 H       1  UNL1        0.0620
     76 H           2.0000   -3.0808    0.0000 H       1  UNL1        0.2098
     77 H          12.0601    2.4056    0.0000 H       1  UNL1        0.0648
     78 H           9.9996    3.4051    0.0000 H       1  UNL1        0.2099
     79 H          12.7279    1.6613    0.0000 H       1  UNL1        0.2100
     80 H          11.0061    4.1282    0.0000 H       1  UNL1        0.0258
     81 H          10.2242    3.7315    0.0000 H       1  UNL1        0.0258
     82 H          10.6209    2.9496    0.0000 H       1  UNL1        0.0258
     83 H          12.5219    2.3282    0.0000 H       1  UNL1        0.0258
     84 H          13.3039    2.7250    0.0000 H       1  UNL1        0.0258
     85 H          12.9072    3.5069    0.0000 H       1  UNL1        0.0258
     86 H          12.6814    4.3066    0.0000 H       1  UNL1        0.2102
@<TRIPOS>BOND
     1    23     1    1
     2     1    76    1
     3    30     2    1
     4     2    78    1
     5    31     3    1
     6     3    79    1
     7     4    32    1
     8     4    86    1
     9     5     6    1
    10     5     9    1
    11     5    12    1
    12     5    20    1
    13     6    10    1
    14     6    13    1
    15     6    21    1
    16     7     8    1
    17     7    10    1
    18     7    14    1
    19     7    35    1
    20     8    11    1
    21     8    17    1
    22     8    24    1
    23     9    15    1
    24     9    19    1
    25     9    36    1
    26    10    22    2
    27    11    16    1
    28    11    18    1
    29    11    37    1
    30    12    14    1
    31    12    38    1
    32    12    39    1
    33    13    15    1
    34    13    40    1
    35    13    41    1
    36    14    42    1
    37    14    43    1
    38    15    44    1
    39    15    45    1
    40    16    23    1
    41    16    26    1
    42    16    27    1
    43    17    25    1
    44    17    46    1
    45    17    47    1
    46    18    22    1
    47    18    48    1
    48    18    49    1
    49    19    28    1
    50    19    29    1
    51    19    50    1
    52    20    51    1
    53    20    52    1
    54    20    53    1
    55    21    54    1
    56    21    55    1
    57    21    56    1
    58    22    57    1
    59    23    25    1
    60    23    58    1
    61    24    59    1
    62    24    60    1
    63    24    61    1
    64    25    62    1
    65    25    63    1
    66    26    64    1
    67    26    68    1
    68    26    69    1
    69    27    65    1
    70    27    66    1
    71    27    67    1
    72    28    30    1
    73    28    70    1
    74    28    71    1
    75    29    72    1
    76    29    73    1
    77    29    74    1
    78    30    31    1
    79    30    75    1
    80    31    32    1
    81    31    77    1
    82    32    33    1
    83    32    34    1
    84    33    83    1
    85    33    84    1
    86    33    85    1
    87    34    80    1
    88    34    81    1
    89    34    82    1
