@<TRIPOS>MOLECULE
IMPHY009778
 24 25 0 0 0
SMALL
GASTEIGER

@<TRIPOS>ATOM
      1 C           3.5388    0.3800    0.0000 C.3     1  UNL1       -0.0013
      2 C           3.5388   -0.6200    0.0000 C.3     1  UNL1       -0.0063
      3 C           4.4054   -0.1200    0.0000 C.3     1  UNL1       -0.0355
      4 C           3.5388    1.3800    0.0000 C.3     1  UNL1       -0.0370
      5 C           2.5878    0.6891    0.0000 C.2     1  UNL1       -0.0767
      6 C           2.5878   -0.9290    0.0000 C.2     1  UNL1       -0.0508
      7 C           2.0000   -0.1200    0.0000 C.2     1  UNL1       -0.0622
      8 C           4.4049    1.8800    0.0000 C.3     1  UNL1       -0.0619
      9 C           2.6728    1.8800    0.0000 C.3     1  UNL1       -0.0619
     10 C           2.2788   -1.8800    0.0000 C.2     1  UNL1       -0.0952
     11 H           3.8845   -1.3965    0.0000 H       1  UNL1        0.0357
     12 H           4.8039   -0.5949    0.0000 H       1  UNL1        0.0280
     13 H           4.8039    0.3550    0.0000 H       1  UNL1        0.0280
     14 H           3.5388    2.0000    0.0000 H       1  UNL1        0.0304
     15 H           2.3962    1.2787    0.0000 H       1  UNL1        0.0578
     16 H           1.3800   -0.1200    0.0000 H       1  UNL1        0.0617
     17 H           4.7149    1.3431    0.0000 H       1  UNL1        0.0233
     18 H           4.9418    2.1900    0.0000 H       1  UNL1        0.0233
     19 H           4.0949    2.4170    0.0000 H       1  UNL1        0.0233
     20 H           2.9828    2.4170    0.0000 H       1  UNL1        0.0233
     21 H           2.1359    2.1900    0.0000 H       1  UNL1        0.0233
     22 H           2.3628    1.3431    0.0000 H       1  UNL1        0.0233
     23 H           1.6723   -2.0089    0.0000 H       1  UNL1        0.0538
     24 H           2.6936   -2.3408    0.0000 H       1  UNL1        0.0538
@<TRIPOS>BOND
     1     1     2    1
     2     1     3    1
     3     1     4    1
     4     1     5    1
     5     2     3    1
     6     2     6    1
     7     2    11    1
     8     3    12    1
     9     3    13    1
    10     4     8    1
    11     4     9    1
    12     4    14    1
    13     5     7    2
    14     5    15    1
    15     6     7    1
    16     6    10    2
    17     7    16    1
    18     8    17    1
    19     8    18    1
    20     8    19    1
    21     9    20    1
    22     9    21    1
    23     9    22    1
    24    10    23    1
    25    10    24    1
