@<TRIPOS>MOLECULE
IMPHY010351
 48 47 0 0 0
SMALL
GASTEIGER

@<TRIPOS>ATOM
      1 O          17.2594   -0.2500    0.0000 O.3     1  UNL1       -0.4773
      2 O           2.5369    0.2500    0.0000 O.3     1  UNL1       -0.4773
      3 O           3.4030   -1.2500    0.0000 O.2     1  UNL1       -0.2455
      4 O          16.3933    1.2500    0.0000 O.2     1  UNL1       -0.2455
      5 C           7.7331    0.2500    0.0000 C.2     1  UNL1       -0.0504
      6 C          12.0632   -0.2500    0.0000 C.2     1  UNL1       -0.0504
      7 C           8.5991   -0.2500    0.0000 C.2     1  UNL1       -0.0588
      8 C          11.1972    0.2500    0.0000 C.2     1  UNL1       -0.0588
      9 C          12.9292    0.2500    0.0000 C.2     1  UNL1       -0.0588
     10 C           6.8671   -0.2500    0.0000 C.2     1  UNL1       -0.0588
     11 C           9.4651    0.2500    0.0000 C.2     1  UNL1       -0.0615
     12 C          10.3312   -0.2500    0.0000 C.2     1  UNL1       -0.0615
     13 C          12.0632   -1.2500    0.0000 C.3     1  UNL1       -0.0397
     14 C           7.7331    1.2500    0.0000 C.3     1  UNL1       -0.0397
     15 C          13.7953   -0.2500    0.0000 C.2     1  UNL1       -0.0610
     16 C           6.0010    0.2500    0.0000 C.2     1  UNL1       -0.0610
     17 C           5.1350   -0.2500    0.0000 C.2     1  UNL1       -0.0521
     18 C          14.6613    0.2500    0.0000 C.2     1  UNL1       -0.0521
     19 C          15.5273   -0.2500    0.0000 C.2     1  UNL1        0.0333
     20 C           4.2690    0.2500    0.0000 C.2     1  UNL1        0.0333
     21 C           4.2690    1.2500    0.0000 C.3     1  UNL1       -0.0329
     22 C          15.5273   -1.2500    0.0000 C.3     1  UNL1       -0.0329
     23 C           3.4030   -0.2500    0.0000 C.2     1  UNL1        0.3325
     24 C          16.3933    0.2500    0.0000 C.2     1  UNL1        0.3325
     25 H           8.5991   -0.8700    0.0000 H       1  UNL1        0.0620
     26 H          11.1972    0.8700    0.0000 H       1  UNL1        0.0620
     27 H           6.8671   -0.8700    0.0000 H       1  UNL1        0.0620
     28 H          12.9292    0.8700    0.0000 H       1  UNL1        0.0620
     29 H           9.4651    0.8700    0.0000 H       1  UNL1        0.0618
     30 H          10.3312   -0.8700    0.0000 H       1  UNL1        0.0618
     31 H          11.4432   -1.2500    0.0000 H       1  UNL1        0.0278
     32 H          12.0632   -1.8700    0.0000 H       1  UNL1        0.0278
     33 H          12.6832   -1.2500    0.0000 H       1  UNL1        0.0278
     34 H           8.3531    1.2500    0.0000 H       1  UNL1        0.0278
     35 H           7.7331    1.8700    0.0000 H       1  UNL1        0.0278
     36 H           7.1131    1.2500    0.0000 H       1  UNL1        0.0278
     37 H           6.0010    0.8700    0.0000 H       1  UNL1        0.0618
     38 H          13.7953   -0.8700    0.0000 H       1  UNL1        0.0618
     39 H           5.1350   -0.8700    0.0000 H       1  UNL1        0.0622
     40 H          14.6613    0.8700    0.0000 H       1  UNL1        0.0622
     41 H           4.8890    1.2500    0.0000 H       1  UNL1        0.0280
     42 H           4.2690    1.8700    0.0000 H       1  UNL1        0.0280
     43 H           3.6490    1.2500    0.0000 H       1  UNL1        0.0280
     44 H          14.9073   -1.2500    0.0000 H       1  UNL1        0.0280
     45 H          15.5273   -1.8700    0.0000 H       1  UNL1        0.0280
     46 H          16.1473   -1.2500    0.0000 H       1  UNL1        0.0280
     47 H           2.0000   -0.0600    0.0000 H       1  UNL1        0.2954
     48 H          17.7963    0.0600    0.0000 H       1  UNL1        0.2954
@<TRIPOS>BOND
     1     1    24    1
     2     1    48    1
     3     2    23    1
     4     2    47    1
     5     3    23    2
     6     4    24    2
     7     5     7    2
     8     5    10    1
     9     5    14    1
    10     6     8    2
    11     6     9    1
    12     6    13    1
    13     7    11    1
    14     7    25    1
    15     8    12    1
    16     8    26    1
    17     9    15    2
    18     9    28    1
    19    10    16    2
    20    10    27    1
    21    11    12    2
    22    11    29    1
    23    12    30    1
    24    13    31    1
    25    13    32    1
    26    13    33    1
    27    14    34    1
    28    14    35    1
    29    14    36    1
    30    15    18    1
    31    15    38    1
    32    16    17    1
    33    16    37    1
    34    17    20    2
    35    17    39    1
    36    18    19    2
    37    18    40    1
    38    19    22    1
    39    19    24    1
    40    20    21    1
    41    20    23    1
    42    21    41    1
    43    21    42    1
    44    21    43    1
    45    22    44    1
    46    22    45    1
    47    22    46    1
