@<TRIPOS>MOLECULE
IMPHY005905
 72 76 0 0 0
SMALL
GASTEIGER

@<TRIPOS>ATOM
      1 O           5.1459   -2.6330    0.0000 O.3     1  UNL1       -0.3313
      2 O           5.1396    4.4396    0.0000 O.3     1  UNL1       -0.3339
      3 O           6.8779   -2.6330    0.0000 O.3     1  UNL1       -0.4532
      4 O           5.1459   -5.6330    0.0000 O.3     1  UNL1       -0.3864
      5 O           3.4138   -4.6330    0.0000 O.3     1  UNL1       -0.3865
      6 O           5.9998    2.9363    0.0000 O.3     1  UNL1       -0.4606
      7 O           6.8779   -4.6330    0.0000 O.3     1  UNL1       -0.3829
      8 O           2.5357    2.9496    0.0000 O.3     1  UNL1       -0.3864
      9 O           2.5434    4.9496    0.0000 O.3     1  UNL1       -0.3866
     10 O           4.2639    1.9430    0.0000 O.3     1  UNL1       -0.3829
     11 O           2.5478   -3.1330    0.0000 O.3     1  UNL1       -0.3924
     12 O           7.7440   -0.1330    0.0000 O.2     1  UNL1       -0.4507
     13 O           5.1459   -1.6329    0.0000 O.2     1  UNL1       -0.2830
     14 O           4.2417   -0.1361    0.0000 O.3     1  UNL1       -0.5058
     15 O          11.2081   -3.1330    0.0000 O.3     1  UNL1       -0.5068
     16 C           5.1459   -4.6330    0.0000 C.3     1  UNL1        0.1152
     17 C           4.2799   -4.1330    0.0000 C.3     1  UNL1        0.1120
     18 C           6.0119   -4.1330    0.0000 C.3     1  UNL1        0.1454
     19 C           4.2799   -3.1330    0.0000 C.3     1  UNL1        0.1140
     20 C           3.4037    3.4463    0.0000 C.3     1  UNL1        0.1151
     21 C           3.4075    4.4463    0.0000 C.3     1  UNL1        0.1096
     22 C           6.0119   -3.1330    0.0000 C.3     1  UNL1        0.2311
     23 C           4.2678    2.9430    0.0000 C.3     1  UNL1        0.1454
     24 C           4.2755    4.9430    0.0000 C.3     1  UNL1        0.0883
     25 C           5.1357    3.4396    0.0000 C.3     1  UNL1        0.2307
     26 C           3.4138   -2.6330    0.0000 C.3     1  UNL1        0.0731
     27 C           4.2793    5.9430    0.0000 C.3     1  UNL1       -0.0360
     28 C           6.8779   -1.6329    0.0000 C.ar    1  UNL1        0.2138
     29 C           5.9960    1.9363    0.0000 C.ar    1  UNL1        0.1310
     30 C           6.0119   -0.1330    0.0000 C.ar    1  UNL1        0.1092
     31 C           6.0119   -1.1329    0.0000 C.ar    1  UNL1        0.2382
     32 C           7.7440   -1.1329    0.0000 C.ar    1  UNL1        0.1809
     33 C           6.8779    0.3670    0.0000 C.ar    1  UNL1        0.1465
     34 C           6.8940    1.4086    0.0000 C.ar    1  UNL1        0.0235
     35 C           5.0939    1.4155    0.0000 C.ar    1  UNL1        0.0226
     36 C           5.1019    0.3739    0.0000 C.ar    1  UNL1        0.1348
     37 C           8.6100   -1.6329    0.0000 C.ar    1  UNL1        0.0213
     38 C           9.4760   -1.1329    0.0000 C.ar    1  UNL1       -0.0475
     39 C           8.6100   -2.6330    0.0000 C.ar    1  UNL1       -0.0475
     40 C          10.3420   -1.6329    0.0000 C.ar    1  UNL1       -0.0195
     41 C           9.4760   -3.1330    0.0000 C.ar    1  UNL1       -0.0195
     42 C          10.3420   -2.6330    0.0000 C.ar    1  UNL1        0.1169
     43 H           5.6828   -4.9430    0.0000 H       1  UNL1        0.0648
     44 H           3.7429   -3.8230    0.0000 H       1  UNL1        0.0647
     45 H           6.5488   -3.8230    0.0000 H       1  UNL1        0.0683
     46 H           4.2799   -2.5130    0.0000 H       1  UNL1        0.0647
     47 H           2.8680    3.7584    0.0000 H       1  UNL1        0.0648
     48 H           3.4099    5.0663    0.0000 H       1  UNL1        0.0646
     49 H           6.0119   -2.5130    0.0000 H       1  UNL1        0.1084
     50 H           3.7296    2.6350    0.0000 H       1  UNL1        0.0683
     51 H           4.8136    5.2509    0.0000 H       1  UNL1        0.0621
     52 H           5.1333    2.8196    0.0000 H       1  UNL1        0.1084
     53 H           3.8124   -2.1580    0.0000 H       1  UNL1        0.0584
     54 H           3.0153   -2.1580    0.0000 H       1  UNL1        0.0584
     55 H           4.8993    5.9406    0.0000 H       1  UNL1        0.0255
     56 H           4.2817    6.5630    0.0000 H       1  UNL1        0.0255
     57 H           3.6593    5.9453    0.0000 H       1  UNL1        0.0255
     58 H           4.6090   -5.9430    0.0000 H       1  UNL1        0.2100
     59 H           3.4138   -5.2530    0.0000 H       1  UNL1        0.2100
     60 H           6.8779   -5.2530    0.0000 H       1  UNL1        0.2102
     61 H           2.0000    3.2617    0.0000 H       1  UNL1        0.2100
     62 H           2.5458    5.5696    0.0000 H       1  UNL1        0.2100
     63 H           3.7258    1.6351    0.0000 H       1  UNL1        0.2102
     64 H           2.0109   -2.8230    0.0000 H       1  UNL1        0.2095
     65 H           7.4345    1.7123    0.0000 H       1  UNL1        0.0691
     66 H           4.5558    1.7234    0.0000 H       1  UNL1        0.0691
     67 H           9.4760   -0.5130    0.0000 H       1  UNL1        0.0626
     68 H           8.0730   -2.9430    0.0000 H       1  UNL1        0.0626
     69 H           3.7012    0.1677    0.0000 H       1  UNL1        0.2922
     70 H          10.8790   -1.3230    0.0000 H       1  UNL1        0.0654
     71 H           9.4760   -3.7530    0.0000 H       1  UNL1        0.0654
     72 H          11.2081   -3.7530    0.0000 H       1  UNL1        0.2921
@<TRIPOS>BOND
     1     1    19    1
     2     1    22    1
     3     2    24    1
     4     2    25    1
     5    22     3    1
     6     3    28    1
     7    16     4    1
     8     4    58    1
     9    17     5    1
    10     5    59    1
    11    25     6    1
    12     6    29    1
    13    18     7    1
    14     7    60    1
    15    20     8    1
    16     8    61    1
    17    21     9    1
    18     9    62    1
    19    23    10    1
    20    10    63    1
    21    11    26    1
    22    11    64    1
    23    12    32   ar
    24    12    33   ar
    25    13    31    2
    26    14    36    1
    27    14    69    1
    28    15    42    1
    29    15    72    1
    30    16    17    1
    31    16    18    1
    32    16    43    1
    33    17    19    1
    34    17    44    1
    35    18    22    1
    36    18    45    1
    37    19    26    1
    38    19    46    1
    39    20    21    1
    40    20    23    1
    41    20    47    1
    42    21    24    1
    43    21    48    1
    44    22    49    1
    45    23    25    1
    46    23    50    1
    47    24    27    1
    48    24    51    1
    49    25    52    1
    50    26    53    1
    51    26    54    1
    52    27    55    1
    53    27    56    1
    54    27    57    1
    55    28    31   ar
    56    28    32   ar
    57    29    34   ar
    58    29    35   ar
    59    30    31   ar
    60    30    33   ar
    61    30    36   ar
    62    32    37    1
    63    33    34   ar
    64    34    65    1
    65    35    36   ar
    66    35    66    1
    67    37    38   ar
    68    37    39   ar
    69    38    40   ar
    70    38    67    1
    71    39    41   ar
    72    39    68    1
    73    40    42   ar
    74    40    70    1
    75    41    42   ar
    76    41    71    1
