@<TRIPOS>MOLECULE
IMPHY015777
 42 44 0 0 0
SMALL
GASTEIGER

@<TRIPOS>ATOM
      1 O           5.7320    1.0481    0.0000 O.3     1  UNL1       -0.3885
      2 C           3.8660   -0.4519    0.0000 C.3     1  UNL1       -0.0207
      3 C           3.0000    0.0481    0.0000 C.3     1  UNL1       -0.0295
      4 C           3.0000    1.0481    0.0000 C.3     1  UNL1       -0.0261
      5 C           3.8660    1.5481    0.0000 C.3     1  UNL1       -0.0069
      6 C           4.7320    0.0481    0.0000 C.3     1  UNL1       -0.0178
      7 C           3.6568   -1.4238    0.0000 C.3     1  UNL1       -0.0378
      8 C           4.7320    1.0481    0.0000 C.3     1  UNL1        0.0671
      9 C           3.4660    0.1481    0.0000 C.3     1  UNL1       -0.0464
     10 C           3.4660    0.9481    0.0000 C.3     1  UNL1       -0.0466
     11 C           2.2630   -0.6190    0.0000 C.3     1  UNL1       -0.0489
     12 C           2.6681   -1.5268    0.0000 C.3     1  UNL1       -0.0497
     13 C           2.0000    1.0481    0.0000 C.3     1  UNL1       -0.0592
     14 C           2.5000    1.9141    0.0000 C.3     1  UNL1       -0.0592
     15 C           4.3247   -2.1681    0.0000 C.3     1  UNL1       -0.0619
     16 C           5.2320    1.9141    0.0000 C.3     1  UNL1       -0.0358
     17 H           2.4333    0.2995    0.0000 H       1  UNL1        0.0311
     18 H           3.8660    2.3981    0.0000 H       1  UNL1        0.0334
     19 H           4.9441   -0.5346    0.0000 H       1  UNL1        0.0298
     20 H           5.3426    0.1557    0.0000 H       1  UNL1        0.0298
     21 H           4.2560   -1.2646    0.0000 H       1  UNL1        0.0304
     22 H           2.8790    0.3476    0.0000 H       1  UNL1        0.0271
     23 H           4.0594    0.3277    0.0000 H       1  UNL1        0.0271
     24 H           3.0882    1.4397    0.0000 H       1  UNL1        0.0269
     25 H           4.0594    0.7684    0.0000 H       1  UNL1        0.0269
     26 H           1.8976   -0.1182    0.0000 H       1  UNL1        0.0268
     27 H           1.7265   -0.9298    0.0000 H       1  UNL1        0.0268
     28 H           2.0785   -1.7186    0.0000 H       1  UNL1        0.0268
     29 H           2.7968   -2.1333    0.0000 H       1  UNL1        0.0268
     30 H           2.0000    1.6681    0.0000 H       1  UNL1        0.0235
     31 H           1.3800    1.0481    0.0000 H       1  UNL1        0.0235
     32 H           2.0000    0.4281    0.0000 H       1  UNL1        0.0235
     33 H           3.0369    2.2241    0.0000 H       1  UNL1        0.0235
     34 H           2.1900    2.4510    0.0000 H       1  UNL1        0.0235
     35 H           1.9631    1.6041    0.0000 H       1  UNL1        0.0235
     36 H           3.8632   -2.5821    0.0000 H       1  UNL1        0.0233
     37 H           4.7387   -2.6295    0.0000 H       1  UNL1        0.0233
     38 H           4.7861   -1.7540    0.0000 H       1  UNL1        0.0233
     39 H           5.7690    1.6041    0.0000 H       1  UNL1        0.0257
     40 H           5.5420    2.4510    0.0000 H       1  UNL1        0.0257
     41 H           4.6951    2.2241    0.0000 H       1  UNL1        0.0257
     42 H           6.0420    0.5111    0.0000 H       1  UNL1        0.2102
@<TRIPOS>BOND
     1     8     1    1
     2     1    42    1
     3     2     3    1
     4     2     6    1
     5     2     7    1
     6     2     9    1
     7     3     4    1
     8     3    11    1
     9     3    17    1
    10     4     5    1
    11     4    13    1
    12     4    14    1
    13     5     8    1
    14     5    10    1
    15     5    18    1
    16     6     8    1
    17     6    19    1
    18     6    20    1
    19     7    12    1
    20     7    15    1
    21     7    21    1
    22     8    16    1
    23     9    10    1
    24     9    22    1
    25     9    23    1
    26    10    24    1
    27    10    25    1
    28    11    12    1
    29    11    26    1
    30    11    27    1
    31    12    28    1
    32    12    29    1
    33    13    30    1
    34    13    31    1
    35    13    32    1
    36    14    33    1
    37    14    34    1
    38    14    35    1
    39    15    36    1
    40    15    37    1
    41    15    38    1
    42    16    39    1
    43    16    40    1
    44    16    41    1
