@<TRIPOS>MOLECULE
IMPHY001089
 100 107 0 0 0
SMALL
GASTEIGER

@<TRIPOS>ATOM
      1 O           6.0682    1.2012    0.0000 O.3     1  UNL1       -0.4800
      2 O           9.2053   -1.8053    0.0000 O.3     1  UNL1       -0.4800
      3 O           7.1523   -3.4742    0.0000 O.3     1  UNL1       -0.4534
      4 O           7.8003    3.2012    0.0000 O.3     1  UNL1       -0.4534
      5 O           5.8307    0.5485    0.0000 O.3     1  UNL1       -0.5028
      6 O           9.1664   -1.1648    0.0000 O.3     1  UNL1       -0.5028
      7 O          10.4002   -5.0974    0.0000 O.3     1  UNL1       -0.5063
      8 O           4.3198    4.2358    0.0000 O.3     1  UNL1       -0.5063
      9 O           5.2291   -2.8630    0.0000 O.3     1  UNL1       -0.5032
     10 O          10.3984    1.7012    0.0000 O.3     1  UNL1       -0.5032
     11 O          10.3984   -0.2988    0.0000 O.3     1  UNL1       -0.5009
     12 O           4.5451   -0.9835    0.0000 O.3     1  UNL1       -0.5009
     13 O          12.6860   -2.3945    0.0000 O.3     1  UNL1       -0.5065
     14 O           2.5381    1.1770    0.0000 O.3     1  UNL1       -0.5065
     15 O           6.9343    4.7012    0.0000 O.2     1  UNL1       -0.2449
     16 O           7.7447   -5.1018    0.0000 O.2     1  UNL1       -0.2449
     17 O           4.7520   -7.1126    0.0000 O.3     1  UNL1       -0.5032
     18 O          11.2644    4.2012    0.0000 O.3     1  UNL1       -0.5032
     19 O           3.5672   -3.8575    0.0000 O.3     1  UNL1       -0.5032
     20 O           9.5323    7.2012    0.0000 O.3     1  UNL1       -0.5032
     21 O          11.2644    6.2012    0.0000 O.3     1  UNL1       -0.5009
     22 O           3.2199   -5.8271    0.0000 O.3     1  UNL1       -0.5009
     23 C           8.2657   -2.1474    0.0000 C.3     1  UNL1        0.1629
     24 C           6.9343    1.7012    0.0000 C.3     1  UNL1        0.1629
     25 C           8.0920   -3.1322    0.0000 C.3     1  UNL1        0.1483
     26 C           6.9343    2.7012    0.0000 C.3     1  UNL1        0.1483
     27 C           7.4996   -1.5046    0.0000 C.ar    1  UNL1        0.0112
     28 C           7.8003    1.2012    0.0000 C.ar    1  UNL1        0.0112
     29 C           6.0682    3.2012    0.0000 C.3     1  UNL1        0.0204
     30 C           8.8580   -3.7749    0.0000 C.3     1  UNL1        0.0204
     31 C           7.8003    0.2012    0.0000 C.ar    1  UNL1        0.0382
     32 C           7.1575   -0.5648    0.0000 C.ar    1  UNL1        0.0382
     33 C           5.2022    2.7012    0.0000 C.ar    1  UNL1        0.0395
     34 C           9.7977   -3.4329    0.0000 C.ar    1  UNL1        0.0395
     35 C           5.2022    1.7012    0.0000 C.ar    1  UNL1        0.1318
     36 C           9.9713   -2.4481    0.0000 C.ar    1  UNL1        0.1318
     37 C           6.8568   -2.2706    0.0000 C.ar    1  UNL1       -0.0089
     38 C           8.6663    1.7012    0.0000 C.ar    1  UNL1       -0.0089
     39 C           6.1727   -0.3911    0.0000 C.ar    1  UNL1        0.1703
     40 C           8.6663   -0.2988    0.0000 C.ar    1  UNL1        0.1703
     41 C           4.3083    3.2358    0.0000 C.ar    1  UNL1        0.1271
     42 C          10.5852   -4.1147    0.0000 C.ar    1  UNL1        0.1271
     43 C           5.8719   -2.0969    0.0000 C.ar    1  UNL1        0.1624
     44 C           9.5323    1.2012    0.0000 C.ar    1  UNL1        0.1624
     45 C           9.5323    0.2012    0.0000 C.ar    1  UNL1        0.2012
     46 C           5.5299   -1.1572    0.0000 C.ar    1  UNL1        0.2012
     47 C          10.9445   -2.0768    0.0000 C.ar    1  UNL1        0.0221
     48 C           4.3083    1.1665    0.0000 C.ar    1  UNL1        0.0221
     49 C          11.5667   -3.7660    0.0000 C.ar    1  UNL1        0.0218
     50 C           3.4022    2.7220    0.0000 C.ar    1  UNL1        0.0218
     51 C           3.4022    1.6804    0.0000 C.ar    1  UNL1        0.1238
     52 C          11.7476   -2.7402    0.0000 C.ar    1  UNL1        0.1238
     53 C           6.9787   -4.4590    0.0000 C.2     1  UNL1        0.3398
     54 C           7.8003    4.2012    0.0000 C.2     1  UNL1        0.3398
     55 C           6.0390   -4.8010    0.0000 C.ar    1  UNL1        0.0661
     56 C           8.6663    4.7012    0.0000 C.ar    1  UNL1        0.0661
     57 C           5.2730   -4.1583    0.0000 C.ar    1  UNL1       -0.0023
     58 C           8.6663    5.7012    0.0000 C.ar    1  UNL1       -0.0023
     59 C           5.8653   -5.7858    0.0000 C.ar    1  UNL1       -0.0023
     60 C           9.5323    4.2012    0.0000 C.ar    1  UNL1       -0.0023
     61 C          10.3984    4.7012    0.0000 C.ar    1  UNL1        0.1628
     62 C           4.9256   -6.1278    0.0000 C.ar    1  UNL1        0.1628
     63 C           9.5323    6.2012    0.0000 C.ar    1  UNL1        0.1628
     64 C           4.3332   -4.5003    0.0000 C.ar    1  UNL1        0.1628
     65 C          10.3984    5.7012    0.0000 C.ar    1  UNL1        0.2006
     66 C           4.1596   -5.4851    0.0000 C.ar    1  UNL1        0.2006
     67 H           8.4132   -1.3102    0.0000 H       1  UNL1        0.0822
     68 H           6.9343    0.8512    0.0000 H       1  UNL1        0.0822
     69 H           6.9343    3.3212    0.0000 H       1  UNL1        0.0778
     70 H           7.6171   -2.7336    0.0000 H       1  UNL1        0.0778
     71 H           8.3830   -4.1734    0.0000 H       1  UNL1        0.0353
     72 H           9.1680   -4.3119    0.0000 H       1  UNL1        0.0353
     73 H           6.4668    3.6761    0.0000 H       1  UNL1        0.0353
     74 H           5.6697    3.6761    0.0000 H       1  UNL1        0.0353
     75 H           7.0688   -2.8532    0.0000 H       1  UNL1        0.0659
     76 H           8.6663    2.3212    0.0000 H       1  UNL1        0.0659
     77 H          11.0451   -1.4650    0.0000 H       1  UNL1        0.0691
     78 H           4.3154    0.5466    0.0000 H       1  UNL1        0.0691
     79 H          12.0401   -4.1663    0.0000 H       1  UNL1        0.0691
     80 H           2.8665    3.0341    0.0000 H       1  UNL1        0.0691
     81 H           5.2201    0.6561    0.0000 H       1  UNL1        0.2923
     82 H           9.7863   -1.1648    0.0000 H       1  UNL1        0.2923
     83 H          10.8705   -5.5014    0.0000 H       1  UNL1        0.2921
     84 H           3.7865    4.5520    0.0000 H       1  UNL1        0.2921
     85 H           5.4412   -3.4456    0.0000 H       1  UNL1        0.2923
     86 H          10.3984    2.3212    0.0000 H       1  UNL1        0.2923
     87 H           4.1466   -1.4585    0.0000 H       1  UNL1        0.2924
     88 H          10.9353    0.0112    0.0000 H       1  UNL1        0.2924
     89 H          13.1624   -2.7912    0.0000 H       1  UNL1        0.2921
     90 H           2.0000    1.4850    0.0000 H       1  UNL1        0.2921
     91 H           5.3806   -3.5477    0.0000 H       1  UNL1        0.0663
     92 H           8.1294    6.0112    0.0000 H       1  UNL1        0.0663
     93 H           6.3403   -6.1844    0.0000 H       1  UNL1        0.0663
     94 H           9.5323    3.5812    0.0000 H       1  UNL1        0.0663
     95 H           5.2269   -7.5112    0.0000 H       1  UNL1        0.2923
     96 H          11.8013    4.5112    0.0000 H       1  UNL1        0.2923
     97 H           2.9845   -4.0695    0.0000 H       1  UNL1        0.2923
     98 H           8.9954    7.5112    0.0000 H       1  UNL1        0.2923
     99 H           3.1122   -6.4377    0.0000 H       1  UNL1        0.2924
    100 H          11.2644    6.8212    0.0000 H       1  UNL1        0.2924
@<TRIPOS>BOND
     1     1    24    1
     2     1    35    1
     3     2    23    1
     4     2    36    1
     5    25     3    1
     6     3    53    1
     7    26     4    1
     8     4    54    1
     9     5    39    1
    10     5    81    1
    11     6    40    1
    12     6    82    1
    13     7    42    1
    14     7    83    1
    15     8    41    1
    16     8    84    1
    17     9    43    1
    18     9    85    1
    19    10    44    1
    20    10    86    1
    21    11    45    1
    22    11    88    1
    23    12    46    1
    24    12    87    1
    25    13    52    1
    26    13    89    1
    27    14    51    1
    28    14    90    1
    29    15    54    2
    30    16    53    2
    31    17    62    1
    32    17    95    1
    33    18    61    1
    34    18    96    1
    35    19    64    1
    36    19    97    1
    37    20    63    1
    38    20    98    1
    39    21    65    1
    40    21   100    1
    41    22    66    1
    42    22    99    1
    43    23    25    1
    44    23    27    1
    45    23    67    1
    46    24    26    1
    47    24    28    1
    48    24    68    1
    49    25    30    1
    50    25    70    1
    51    26    29    1
    52    26    69    1
    53    27    32   ar
    54    27    37   ar
    55    28    31   ar
    56    28    38   ar
    57    29    33    1
    58    29    73    1
    59    29    74    1
    60    30    34    1
    61    30    71    1
    62    30    72    1
    63    31    32    1
    64    31    40   ar
    65    32    39   ar
    66    33    35   ar
    67    33    41   ar
    68    34    36   ar
    69    34    42   ar
    70    35    48   ar
    71    36    47   ar
    72    37    43   ar
    73    37    75    1
    74    38    44   ar
    75    38    76    1
    76    39    46   ar
    77    40    45   ar
    78    41    50   ar
    79    42    49   ar
    80    43    46   ar
    81    44    45   ar
    82    47    52   ar
    83    47    77    1
    84    48    51   ar
    85    48    78    1
    86    49    52   ar
    87    49    79    1
    88    50    51   ar
    89    50    80    1
    90    53    55    1
    91    54    56    1
    92    55    57   ar
    93    55    59   ar
    94    56    58   ar
    95    56    60   ar
    96    57    64   ar
    97    57    91    1
    98    58    63   ar
    99    58    92    1
   100    59    62   ar
   101    59    93    1
   102    60    61   ar
   103    60    94    1
   104    61    65   ar
   105    62    66   ar
   106    63    65   ar
   107    64    66   ar
