@<TRIPOS>MOLECULE
IMPHY007047
 36 38 0 0 0
SMALL
GASTEIGER

@<TRIPOS>ATOM
      1 P           5.0474    3.3034    0.0000 P.3     1  UNL1        0.4724
      2 O           4.4026   -0.1498    0.0000 O.3     1  UNL1       -0.3456
      3 O           6.7485   -1.2416    0.0000 O.3     1  UNL1       -0.3847
      4 O           6.7523    0.9340    0.0000 O.3     1  UNL1       -0.3864
      5 O           5.3548    2.3518    0.0000 O.3     1  UNL1       -0.2841
      6 O           4.7400    4.2550    0.0000 O.3     1  UNL1       -0.3026
      7 O           5.9990    3.6108    0.0000 O.3     1  UNL1       -0.3026
      8 O           2.8660   -4.7150    0.0000 O.2     1  UNL1       -0.2634
      9 O           4.0958    2.9960    0.0000 O.2     1  UNL1       -0.2275
     10 N           4.6783   -1.9103    0.0000 N.ar    1  UNL1       -0.2869
     11 N           4.6783   -3.5198    0.0000 N.ar    1  UNL1       -0.2286
     12 N           2.8660   -1.7150    0.0000 N.ar    1  UNL1       -0.3303
     13 N           2.0000   -3.2150    0.0000 N.ar    1  UNL1       -0.1976
     14 C           5.9405   -0.6524    0.0000 C.3     1  UNL1        0.1285
     15 C           4.9889   -0.9598    0.0000 C.3     1  UNL1        0.1666
     16 C           5.9422    0.3476    0.0000 C.3     1  UNL1        0.1135
     17 C           4.9917    0.6582    0.0000 C.3     1  UNL1        0.1134
     18 C           4.6844    1.6098    0.0000 C.3     1  UNL1        0.0878
     19 C           3.7320   -2.2150    0.0000 C.ar    1  UNL1        0.1470
     20 C           5.2619   -2.7150    0.0000 C.ar    1  UNL1        0.1004
     21 C           3.7320   -3.2150    0.0000 C.ar    1  UNL1        0.1720
     22 C           2.8660   -3.7150    0.0000 C.ar    1  UNL1        0.3006
     23 C           2.0000   -2.2150    0.0000 C.ar    1  UNL1        0.0988
     24 H           6.4934   -0.3719    0.0000 H       1  UNL1        0.0665
     25 H           5.4266   -1.3990    0.0000 H       1  UNL1        0.0866
     26 H           6.4942    0.0652    0.0000 H       1  UNL1        0.0647
     27 H           4.3795    0.7563    0.0000 H       1  UNL1        0.0647
     28 H           4.3035    2.0991    0.0000 H       1  UNL1        0.0592
     29 H           4.1364    1.3197    0.0000 H       1  UNL1        0.0592
     30 H           7.3154   -0.9904    0.0000 H       1  UNL1        0.2101
     31 H           7.3182    0.6808    0.0000 H       1  UNL1        0.2100
     32 H           5.8819   -2.7150    0.0000 H       1  UNL1        0.1030
     33 H           2.8660   -1.0950    0.0000 H       1  UNL1        0.1682
     34 H           1.4631   -1.9050    0.0000 H       1  UNL1        0.1028
     35 H           5.1557    4.7150    0.0000 H       1  UNL1        0.2220
     36 H           6.1290    4.2170    0.0000 H       1  UNL1        0.2220
@<TRIPOS>BOND
     1     1     5    1
     2     1     6    1
     3     1     7    1
     4     1     9    2
     5     2    15    1
     6     2    17    1
     7    14     3    1
     8     3    30    1
     9    16     4    1
    10     4    31    1
    11     5    18    1
    12     6    35    1
    13     7    36    1
    14     8    22    2
    15    15    10    1
    16    10    19   ar
    17    10    20   ar
    18    11    20   ar
    19    11    21   ar
    20    12    19   ar
    21    12    23   ar
    22    12    33    1
    23    13    22   ar
    24    13    23   ar
    25    14    15    1
    26    14    16    1
    27    14    24    1
    28    15    25    1
    29    16    17    1
    30    16    26    1
    31    17    18    1
    32    17    27    1
    33    18    28    1
    34    18    29    1
    35    19    21   ar
    36    20    32    1
    37    21    22   ar
    38    23    34    1
