@<TRIPOS>MOLECULE
IMPHY008492
 51 54 0 0 0
SMALL
GASTEIGER

@<TRIPOS>ATOM
      1 O           5.1350   -1.2857    0.0000 O.3     1  UNL1       -0.3313
      2 O           6.8671   -1.2857    0.0000 O.3     1  UNL1       -0.4532
      3 O           5.1350   -4.2857    0.0000 O.3     1  UNL1       -0.3864
      4 O           3.4030   -3.2857    0.0000 O.3     1  UNL1       -0.3865
      5 O           6.8671   -3.2857    0.0000 O.3     1  UNL1       -0.3829
      6 O           2.5369   -1.7857    0.0000 O.3     1  UNL1       -0.3924
      7 O           7.7331    1.2143    0.0000 O.2     1  UNL1       -0.4507
      8 O           5.1350   -0.2857    0.0000 O.2     1  UNL1       -0.2830
      9 O           4.2308    1.2112    0.0000 O.3     1  UNL1       -0.5058
     10 O           5.9889    4.2836    0.0000 O.3     1  UNL1       -0.5065
     11 C           5.1350   -3.2857    0.0000 C.3     1  UNL1        0.1152
     12 C           4.2690   -2.7857    0.0000 C.3     1  UNL1        0.1120
     13 C           6.0010   -2.7857    0.0000 C.3     1  UNL1        0.1454
     14 C           4.2690   -1.7857    0.0000 C.3     1  UNL1        0.1140
     15 C           6.0010   -1.7857    0.0000 C.3     1  UNL1        0.2311
     16 C           3.4030   -1.2857    0.0000 C.3     1  UNL1        0.0731
     17 C           6.8671   -0.2857    0.0000 C.ar    1  UNL1        0.2138
     18 C           7.7331    0.2143    0.0000 C.ar    1  UNL1        0.1809
     19 C           6.0010    0.2143    0.0000 C.ar    1  UNL1        0.2382
     20 C           6.0010    1.2143    0.0000 C.ar    1  UNL1        0.1092
     21 C           6.8671    1.7143    0.0000 C.ar    1  UNL1        0.1465
     22 C           8.5991   -0.2857    0.0000 C.ar    1  UNL1        0.0211
     23 C           5.0910    1.7212    0.0000 C.ar    1  UNL1        0.1348
     24 C           6.8831    2.7558    0.0000 C.ar    1  UNL1        0.0231
     25 C           9.4651    0.2143    0.0000 C.ar    1  UNL1       -0.0510
     26 C           8.5991   -1.2857    0.0000 C.ar    1  UNL1       -0.0510
     27 C           5.0830    2.7628    0.0000 C.ar    1  UNL1        0.0223
     28 C           5.9851    3.2836    0.0000 C.ar    1  UNL1        0.1239
     29 C          10.3312   -0.2857    0.0000 C.ar    1  UNL1       -0.0611
     30 C           9.4651   -1.7857    0.0000 C.ar    1  UNL1       -0.0611
     31 C          10.3312   -1.2857    0.0000 C.ar    1  UNL1       -0.0617
     32 H           5.6720   -3.5957    0.0000 H       1  UNL1        0.0648
     33 H           4.2690   -3.4057    0.0000 H       1  UNL1        0.0647
     34 H           6.5380   -2.4757    0.0000 H       1  UNL1        0.0683
     35 H           4.2690   -1.1657    0.0000 H       1  UNL1        0.0647
     36 H           6.0010   -1.1657    0.0000 H       1  UNL1        0.1084
     37 H           3.8015   -0.8107    0.0000 H       1  UNL1        0.0584
     38 H           3.0044   -0.8107    0.0000 H       1  UNL1        0.0584
     39 H           4.5981   -4.5957    0.0000 H       1  UNL1        0.2100
     40 H           3.4030   -3.9057    0.0000 H       1  UNL1        0.2100
     41 H           6.8671   -3.9057    0.0000 H       1  UNL1        0.2102
     42 H           2.0000   -1.4757    0.0000 H       1  UNL1        0.2095
     43 H           7.4236    3.0596    0.0000 H       1  UNL1        0.0691
     44 H           9.4651    0.8343    0.0000 H       1  UNL1        0.0625
     45 H           8.0622   -1.5957    0.0000 H       1  UNL1        0.0625
     46 H           4.5449    3.0707    0.0000 H       1  UNL1        0.0691
     47 H          10.8681    0.0243    0.0000 H       1  UNL1        0.0618
     48 H           9.4651   -2.4057    0.0000 H       1  UNL1        0.0618
     49 H          10.8681   -1.5957    0.0000 H       1  UNL1        0.0618
     50 H           3.6904    1.5150    0.0000 H       1  UNL1        0.2922
     51 H           5.4532    4.5957    0.0000 H       1  UNL1        0.2921
@<TRIPOS>BOND
     1     1    14    1
     2     1    15    1
     3    15     2    1
     4     2    17    1
     5     3    11    1
     6     3    39    1
     7    12     4    1
     8     4    40    1
     9     5    13    1
    10     5    41    1
    11     6    16    1
    12     6    42    1
    13     7    18   ar
    14     7    21   ar
    15     8    19    2
    16     9    23    1
    17     9    50    1
    18    10    28    1
    19    10    51    1
    20    11    12    1
    21    11    13    1
    22    11    32    1
    23    12    14    1
    24    12    33    1
    25    13    15    1
    26    13    34    1
    27    14    16    1
    28    14    35    1
    29    15    36    1
    30    16    37    1
    31    16    38    1
    32    17    18   ar
    33    17    19   ar
    34    18    22    1
    35    19    20   ar
    36    20    21   ar
    37    20    23   ar
    38    21    24   ar
    39    22    25   ar
    40    22    26   ar
    41    23    27   ar
    42    24    28   ar
    43    24    43    1
    44    25    29   ar
    45    25    44    1
    46    26    30   ar
    47    26    45    1
    48    27    28   ar
    49    27    46    1
    50    29    31   ar
    51    29    47    1
    52    30    31   ar
    53    30    48    1
    54    31    49    1
