@<TRIPOS>MOLECULE
IMPHY001580
 41 43 0 0 0
SMALL
GASTEIGER

@<TRIPOS>ATOM
      1 O           3.9061    1.0000    0.0000 O.3     1  UNL1       -0.4824
      2 O           2.1359   -1.0588    0.0000 O.3     1  UNL1       -0.3875
      3 O           6.5480    2.5346    0.0000 O.3     1  UNL1       -0.4577
      4 O           5.6660   -2.0346    0.0000 O.3     1  UNL1       -0.4947
      5 O           4.7782    2.4968    0.0000 O.2     1  UNL1       -0.2448
      6 C           3.0000    0.4862    0.0000 C.3     1  UNL1        0.1310
      7 C           3.0000   -0.5554    0.0000 C.3     1  UNL1        0.0984
      8 C           3.9061   -1.0693    0.0000 C.3     1  UNL1        0.0091
      9 C           4.8000   -0.5346    0.0000 C.ar    1  UNL1        0.0393
     10 C           4.8000    0.4654    0.0000 C.ar    1  UNL1        0.1423
     11 C           5.6660    0.9654    0.0000 C.ar    1  UNL1        0.1043
     12 C           6.5320    0.4654    0.0000 C.ar    1  UNL1       -0.0229
     13 C           2.0000    0.4900    0.0000 C.3     1  UNL1       -0.0227
     14 C           2.5033    1.3541    0.0000 C.3     1  UNL1       -0.0227
     15 C           5.6660   -1.0346    0.0000 C.ar    1  UNL1        0.1271
     16 C           7.4420    0.9722    0.0000 C.3     1  UNL1        0.0104
     17 C           7.4501    2.0138    0.0000 C.3     1  UNL1        0.1046
     18 C           6.5320   -0.5346    0.0000 C.ar    1  UNL1       -0.0154
     19 C           5.6500    2.0069    0.0000 C.2     1  UNL1        0.3433
     20 C           8.3180    2.5105    0.0000 C.3     1  UNL1       -0.0274
     21 C           6.5320   -2.5346    0.0000 C.3     1  UNL1        0.0788
     22 H           3.0036   -1.1754    0.0000 H       1  UNL1        0.0636
     23 H           3.5124   -1.5483    0.0000 H       1  UNL1        0.0342
     24 H           4.3107   -1.5391    0.0000 H       1  UNL1        0.0342
     25 H           2.0024    1.1100    0.0000 H       1  UNL1        0.0269
     26 H           1.3800    0.4924    0.0000 H       1  UNL1        0.0269
     27 H           1.9976   -0.1300    0.0000 H       1  UNL1        0.0269
     28 H           3.0415    1.6621    0.0000 H       1  UNL1        0.0269
     29 H           2.1954    1.8923    0.0000 H       1  UNL1        0.0269
     30 H           1.9652    1.0462    0.0000 H       1  UNL1        0.0269
     31 H           7.6466    0.3869    0.0000 H       1  UNL1        0.0349
     32 H           8.0537    1.0736    0.0000 H       1  UNL1        0.0349
     33 H           7.4513    2.6338    0.0000 H       1  UNL1        0.0734
     34 H           7.0690   -0.8446    0.0000 H       1  UNL1        0.0657
     35 H           2.1383   -1.6788    0.0000 H       1  UNL1        0.2100
     36 H           8.6260    1.9724    0.0000 H       1  UNL1        0.0265
     37 H           8.8562    2.8184    0.0000 H       1  UNL1        0.0265
     38 H           8.0101    3.0486    0.0000 H       1  UNL1        0.0265
     39 H           6.2220   -3.0716    0.0000 H       1  UNL1        0.0660
     40 H           7.0690   -2.8446    0.0000 H       1  UNL1        0.0660
     41 H           6.8420   -1.9977    0.0000 H       1  UNL1        0.0660
@<TRIPOS>BOND
     1     1     6    1
     2     1    10    1
     3     7     2    1
     4     2    35    1
     5     3    17    1
     6     3    19    1
     7     4    15    1
     8     4    21    1
     9     5    19    2
    10     6     7    1
    11     6    13    1
    12     6    14    1
    13     7     8    1
    14     7    22    1
    15     8     9    1
    16     8    23    1
    17     8    24    1
    18     9    10   ar
    19     9    15   ar
    20    10    11   ar
    21    11    12   ar
    22    11    19    1
    23    12    16    1
    24    12    18   ar
    25    13    25    1
    26    13    26    1
    27    13    27    1
    28    14    28    1
    29    14    29    1
    30    14    30    1
    31    15    18   ar
    32    16    17    1
    33    16    31    1
    34    16    32    1
    35    17    20    1
    36    17    33    1
    37    18    34    1
    38    20    36    1
    39    20    37    1
    40    20    38    1
    41    21    39    1
    42    21    40    1
    43    21    41    1
