@<TRIPOS>MOLECULE
IMPHY008916
 78 82 0 0 0
SMALL
GASTEIGER

@<TRIPOS>ATOM
      1 O           8.9900    2.0037    0.0000 O.3     1  UNL1       -0.4535
      2 O           6.0010   -0.2515    0.0000 O.2     1  UNL1       -0.4702
      3 O          10.2629    0.2485    0.0000 O.3     1  UNL1       -0.4538
      4 O           6.8671   -1.7515    0.0000 O.3     1  UNL1       -0.3096
      5 O           5.1350   -1.7515    0.0000 O.3     1  UNL1       -0.3404
      6 O           6.0010    2.7485    0.0000 O.3     1  UNL1       -0.4646
      7 O           6.8671   -3.7515    0.0000 O.3     1  UNL1       -0.3841
      8 O           7.7331    2.7485    0.0000 O.2     1  UNL1       -0.2452
      9 O           5.1350   -4.7515    0.0000 O.3     1  UNL1       -0.3864
     10 O           3.4030   -3.7515    0.0000 O.3     1  UNL1       -0.3865
     11 O          10.6363    1.4656    0.0000 O.2     1  UNL1       -0.2449
     12 O          10.2629   -1.4836    0.0000 O.2     1  UNL1       -0.2449
     13 O           2.5369   -2.2515    0.0000 O.3     1  UNL1       -0.3924
     14 C           7.7331   -0.2515    0.0000 C.3     1  UNL1        0.0383
     15 C           7.7331    0.7485    0.0000 C.3     1  UNL1        0.0433
     16 C           8.6793   -0.5562    0.0000 C.3     1  UNL1        0.0061
     17 C           8.6793    1.0532    0.0000 C.3     1  UNL1        0.1478
     18 C           9.2629    0.2485    0.0000 C.3     1  UNL1        0.1437
     19 C           6.8671   -0.7515    0.0000 C.3     1  UNL1        0.2073
     20 C           6.8671    1.2485    0.0000 C.2     1  UNL1        0.0779
     21 C           8.9900   -1.5068    0.0000 C.3     1  UNL1       -0.0585
     22 C           6.0010    0.7485    0.0000 C.2     1  UNL1        0.0982
     23 C           6.0010   -2.2515    0.0000 C.3     1  UNL1        0.1918
     24 C           6.8671    2.2485    0.0000 C.2     1  UNL1        0.3382
     25 C           6.0010   -3.2515    0.0000 C.3     1  UNL1        0.1342
     26 C           5.1350   -3.7515    0.0000 C.3     1  UNL1        0.1141
     27 C           9.9685    2.2100    0.0000 C.2     1  UNL1        0.3396
     28 C          10.7629   -0.6175    0.0000 C.2     1  UNL1        0.3396
     29 C           4.2690   -2.2515    0.0000 C.3     1  UNL1        0.1130
     30 C           4.2690   -3.2515    0.0000 C.3     1  UNL1        0.1119
     31 C           3.4030   -1.7515    0.0000 C.3     1  UNL1        0.0730
     32 C          10.2791    3.1605    0.0000 C.ar    1  UNL1        0.0590
     33 C          11.7629   -0.6175    0.0000 C.ar    1  UNL1        0.0590
     34 C           6.0010    3.7485    0.0000 C.3     1  UNL1        0.0820
     35 C          11.2576    3.3667    0.0000 C.ar    1  UNL1       -0.0478
     36 C           9.6113    3.9048    0.0000 C.ar    1  UNL1       -0.0478
     37 C          12.2629   -1.4836    0.0000 C.ar    1  UNL1       -0.0478
     38 C          12.2629    0.2485    0.0000 C.ar    1  UNL1       -0.0478
     39 C          11.5683    4.3172    0.0000 C.ar    1  UNL1       -0.0610
     40 C           9.9220    4.8553    0.0000 C.ar    1  UNL1       -0.0610
     41 C          13.2629   -1.4836    0.0000 C.ar    1  UNL1       -0.0610
     42 C          13.2629    0.2485    0.0000 C.ar    1  UNL1       -0.0610
     43 C          10.9005    5.0615    0.0000 C.ar    1  UNL1       -0.0617
     44 C          13.7629   -0.6175    0.0000 C.ar    1  UNL1       -0.0617
     45 H           7.8230   -1.0967    0.0000 H       1  UNL1        0.0372
     46 H           7.8230    1.5937    0.0000 H       1  UNL1        0.0394
     47 H           8.2418   -0.9956    0.0000 H       1  UNL1        0.0340
     48 H           8.2418    1.4926    0.0000 H       1  UNL1        0.0778
     49 H           9.5446   -0.3038    0.0000 H       1  UNL1        0.0774
     50 H           7.4040   -1.0615    0.0000 H       1  UNL1        0.1059
     51 H           8.4006   -1.6994    0.0000 H       1  UNL1        0.0234
     52 H           9.1826   -2.0961    0.0000 H       1  UNL1        0.0234
     53 H           9.5793   -1.3142    0.0000 H       1  UNL1        0.0234
     54 H           5.4641    1.0585    0.0000 H       1  UNL1        0.1029
     55 H           6.5380   -2.5615    0.0000 H       1  UNL1        0.0939
     56 H           6.0010   -3.8715    0.0000 H       1  UNL1        0.0671
     57 H           4.5981   -4.0615    0.0000 H       1  UNL1        0.0648
     58 H           4.2690   -1.6315    0.0000 H       1  UNL1        0.0647
     59 H           3.7320   -2.9415    0.0000 H       1  UNL1        0.0647
     60 H           3.8015   -1.2766    0.0000 H       1  UNL1        0.0584
     61 H           3.0044   -1.2766    0.0000 H       1  UNL1        0.0584
     62 H           6.8671   -4.3715    0.0000 H       1  UNL1        0.2101
     63 H           4.5981   -5.0615    0.0000 H       1  UNL1        0.2100
     64 H           3.4030   -4.3715    0.0000 H       1  UNL1        0.2100
     65 H           6.6210    3.7485    0.0000 H       1  UNL1        0.0661
     66 H           6.0010    4.3685    0.0000 H       1  UNL1        0.0661
     67 H           5.3810    3.7485    0.0000 H       1  UNL1        0.0661
     68 H          11.6717    2.9052    0.0000 H       1  UNL1        0.0626
     69 H           9.0046    3.7769    0.0000 H       1  UNL1        0.0626
     70 H          11.9529   -2.0205    0.0000 H       1  UNL1        0.0626
     71 H          11.9529    0.7854    0.0000 H       1  UNL1        0.0626
     72 H           2.0000   -1.9415    0.0000 H       1  UNL1        0.2095
     73 H          12.1750    4.4451    0.0000 H       1  UNL1        0.0618
     74 H           9.5079    5.3168    0.0000 H       1  UNL1        0.0618
     75 H          13.5729   -2.0205    0.0000 H       1  UNL1        0.0618
     76 H          13.5729    0.7854    0.0000 H       1  UNL1        0.0618
     77 H          11.0931    5.6508    0.0000 H       1  UNL1        0.0618
     78 H          14.3829   -0.6175    0.0000 H       1  UNL1        0.0618
@<TRIPOS>BOND
     1    17     1    1
     2     1    27    1
     3     2    19    1
     4     2    22    1
     5    18     3    1
     6     3    28    1
     7    19     4    1
     8    23     4    1
     9     5    23    1
    10     5    29    1
    11     6    24    1
    12     6    34    1
    13    25     7    1
    14     7    62    1
    15     8    24    2
    16    26     9    1
    17     9    63    1
    18    30    10    1
    19    10    64    1
    20    11    27    2
    21    12    28    2
    22    13    31    1
    23    13    72    1
    24    14    15    1
    25    14    16    1
    26    14    19    1
    27    14    45    1
    28    15    17    1
    29    15    20    1
    30    15    46    1
    31    16    18    1
    32    16    21    1
    33    16    47    1
    34    17    18    1
    35    17    48    1
    36    18    49    1
    37    19    50    1
    38    20    22    2
    39    20    24    1
    40    21    51    1
    41    21    52    1
    42    21    53    1
    43    22    54    1
    44    23    25    1
    45    23    55    1
    46    25    26    1
    47    25    56    1
    48    26    30    1
    49    26    57    1
    50    27    32    1
    51    28    33    1
    52    29    30    1
    53    29    31    1
    54    29    58    1
    55    30    59    1
    56    31    60    1
    57    31    61    1
    58    32    35   ar
    59    32    36   ar
    60    33    37   ar
    61    33    38   ar
    62    34    65    1
    63    34    66    1
    64    34    67    1
    65    35    39   ar
    66    35    68    1
    67    36    40   ar
    68    36    69    1
    69    37    41   ar
    70    37    70    1
    71    38    42   ar
    72    38    71    1
    73    39    43   ar
    74    39    73    1
    75    40    43   ar
    76    40    74    1
    77    41    44   ar
    78    41    75    1
    79    42    44   ar
    80    42    76    1
    81    43    77    1
    82    44    78    1
