@<TRIPOS>MOLECULE
IMPHY016937
 38 38 0 0 0
SMALL
GASTEIGER

@<TRIPOS>ATOM
      1 O           6.4641    2.0000    0.0000 O.2     1  UNL1       -0.4090
      2 N           5.5981    2.5000    0.0000 N.2     1  UNL1       -0.0924
      3 C           3.0000   -1.0000    0.0000 C.3     1  UNL1       -0.0284
      4 C           3.8660   -0.5000    0.0000 C.3     1  UNL1       -0.0148
      5 C           4.7320   -1.0000    0.0000 C.3     1  UNL1       -0.0371
      6 C           3.0000   -2.0000    0.0000 C.3     1  UNL1       -0.0473
      7 C           4.7320   -2.0000    0.0000 C.3     1  UNL1       -0.0499
      8 C           3.8660   -2.5000    0.0000 C.3     1  UNL1       -0.0523
      9 C           2.0000   -1.0000    0.0000 C.3     1  UNL1       -0.0593
     10 C           2.5000   -0.1340    0.0000 C.3     1  UNL1       -0.0593
     11 C           5.5981   -0.5000    0.0000 C.3     1  UNL1       -0.0619
     12 C           3.8660    0.5000    0.0000 C.2     1  UNL1       -0.0784
     13 C           4.7320    1.0000    0.0000 C.2     1  UNL1       -0.0412
     14 C           4.7320    2.0000    0.0000 C.2     1  UNL1        0.0765
     15 C           3.8660    2.5000    0.0000 C.3     1  UNL1       -0.0192
     16 H           3.3291   -0.1900    0.0000 H       1  UNL1        0.0351
     17 H           4.7320   -0.3800    0.0000 H       1  UNL1        0.0304
     18 H           2.3894   -1.8923    0.0000 H       1  UNL1        0.0271
     19 H           2.7880   -2.5826    0.0000 H       1  UNL1        0.0271
     20 H           4.9441   -2.5826    0.0000 H       1  UNL1        0.0268
     21 H           5.3426   -1.8923    0.0000 H       1  UNL1        0.0268
     22 H           3.4675   -2.9750    0.0000 H       1  UNL1        0.0266
     23 H           4.2646   -2.9750    0.0000 H       1  UNL1        0.0266
     24 H           2.0000   -0.3800    0.0000 H       1  UNL1        0.0235
     25 H           1.3800   -1.0000    0.0000 H       1  UNL1        0.0235
     26 H           2.0000   -1.6200    0.0000 H       1  UNL1        0.0235
     27 H           3.0369    0.1760    0.0000 H       1  UNL1        0.0235
     28 H           2.1900    0.4030    0.0000 H       1  UNL1        0.0235
     29 H           1.9631   -0.4440    0.0000 H       1  UNL1        0.0235
     30 H           5.9081   -1.0369    0.0000 H       1  UNL1        0.0233
     31 H           6.1350   -0.1900    0.0000 H       1  UNL1        0.0233
     32 H           5.2881    0.0369    0.0000 H       1  UNL1        0.0233
     33 H           3.3291    0.8100    0.0000 H       1  UNL1        0.0576
     34 H           5.2690    0.6900    0.0000 H       1  UNL1        0.0633
     35 H           4.1760    3.0369    0.0000 H       1  UNL1        0.0294
     36 H           3.3291    2.8100    0.0000 H       1  UNL1        0.0294
     37 H           3.5560    1.9631    0.0000 H       1  UNL1        0.0294
     38 H           7.0010    2.3100    0.0000 H       1  UNL1        0.3278
@<TRIPOS>BOND
     1     1     2    1
     2     1    38    1
     3     2    14    2
     4     3     4    1
     5     3     6    1
     6     3     9    1
     7     3    10    1
     8     4     5    1
     9     4    12    1
    10     4    16    1
    11     5     7    1
    12     5    11    1
    13     5    17    1
    14     6     8    1
    15     6    18    1
    16     6    19    1
    17     7     8    1
    18     7    20    1
    19     7    21    1
    20     8    22    1
    21     8    23    1
    22     9    24    1
    23     9    25    1
    24     9    26    1
    25    10    27    1
    26    10    28    1
    27    10    29    1
    28    11    30    1
    29    11    31    1
    30    11    32    1
    31    12    13    2
    32    12    33    1
    33    13    14    1
    34    13    34    1
    35    14    15    1
    36    15    35    1
    37    15    36    1
    38    15    37    1
