@<TRIPOS>MOLECULE
IMPHY012811
 31 32 0 0 0
SMALL
GASTEIGER

@<TRIPOS>ATOM
      1 O           4.5691    0.9139    0.0000 O.3     1  UNL1       -0.3526
      2 N           3.2601    1.8649    0.0000 N.3     1  UNL1       -0.2753
      3 C           2.9511    0.9139    0.0000 C.3     1  UNL1        0.0400
      4 C           3.7601    0.3261    0.0000 C.3     1  UNL1        0.1009
      5 C           4.2601    1.8649    0.0000 C.3     1  UNL1        0.1099
      6 C           2.0000    0.6048    0.0000 C.3     1  UNL1       -0.0467
      7 C           3.7601   -0.6739    0.0000 C.ar    1  UNL1       -0.0173
      8 C           2.6723    2.6739    0.0000 C.3     1  UNL1       -0.0101
      9 C           4.8479    2.6739    0.0000 C.3     1  UNL1       -0.0249
     10 C           2.8940   -1.1739    0.0000 C.ar    1  UNL1       -0.0561
     11 C           4.6261   -1.1739    0.0000 C.ar    1  UNL1       -0.0561
     12 C           2.8940   -2.1739    0.0000 C.ar    1  UNL1       -0.0614
     13 C           4.6261   -2.1739    0.0000 C.ar    1  UNL1       -0.0614
     14 C           3.7601   -2.6739    0.0000 C.ar    1  UNL1       -0.0617
     15 H           2.5126    1.3523    0.0000 H       1  UNL1        0.0489
     16 H           4.3125    0.0446    0.0000 H       1  UNL1        0.0663
     17 H           4.8724    1.7679    0.0000 H       1  UNL1        0.0766
     18 H           1.8084    1.1945    0.0000 H       1  UNL1        0.0246
     19 H           1.4103    0.4132    0.0000 H       1  UNL1        0.0246
     20 H           2.1916    0.0152    0.0000 H       1  UNL1        0.0246
     21 H           3.1739    3.0384    0.0000 H       1  UNL1        0.0391
     22 H           2.3079    3.1755    0.0000 H       1  UNL1        0.0391
     23 H           2.1707    2.3095    0.0000 H       1  UNL1        0.0391
     24 H           5.3494    2.3095    0.0000 H       1  UNL1        0.0268
     25 H           5.2123    3.1755    0.0000 H       1  UNL1        0.0268
     26 H           4.3463    3.0384    0.0000 H       1  UNL1        0.0268
     27 H           2.3571   -0.8639    0.0000 H       1  UNL1        0.0621
     28 H           5.1630   -0.8639    0.0000 H       1  UNL1        0.0621
     29 H           2.3571   -2.4839    0.0000 H       1  UNL1        0.0618
     30 H           5.1630   -2.4839    0.0000 H       1  UNL1        0.0618
     31 H           3.7601   -3.2939    0.0000 H       1  UNL1        0.0618
@<TRIPOS>BOND
     1     1     4    1
     2     1     5    1
     3     2     3    1
     4     2     5    1
     5     2     8    1
     6     3     4    1
     7     3     6    1
     8     3    15    1
     9     4     7    1
    10     4    16    1
    11     5     9    1
    12     5    17    1
    13     6    18    1
    14     6    19    1
    15     6    20    1
    16     7    10   ar
    17     7    11   ar
    18     8    21    1
    19     8    22    1
    20     8    23    1
    21     9    24    1
    22     9    25    1
    23     9    26    1
    24    10    12   ar
    25    10    27    1
    26    11    13   ar
    27    11    28    1
    28    12    14   ar
    29    12    29    1
    30    13    14   ar
    31    13    30    1
    32    14    31    1
