@<TRIPOS>MOLECULE
IMPHY010786
 47 50 0 0 0
SMALL
GASTEIGER

@<TRIPOS>ATOM
      1 O           6.8671    3.5000    0.0000 O.3     1  UNL1       -0.3244
      2 O           6.8671    0.5000    0.0000 O.3     1  UNL1       -0.3237
      3 O           8.5991    3.5000    0.0000 O.3     1  UNL1       -0.3284
      4 O           5.1350    2.5000    0.0000 O.3     1  UNL1       -0.4443
      5 O           8.5991    2.5000    0.0000 O.3     1  UNL1       -0.2176
      6 O           5.1350    0.5000    0.0000 O.3     1  UNL1       -0.3274
      7 O           6.8671    5.5000    0.0000 O.3     1  UNL1       -0.2149
      8 O           8.5991    6.5000    0.0000 O.3     1  UNL1       -0.2174
      9 O          10.3312    5.5000    0.0000 O.3     1  UNL1       -0.2177
     10 O           8.5991   -0.5000    0.0000 O.3     1  UNL1       -0.4427
     11 O           4.2690    1.0000    0.0000 O.2     1  UNL1       -0.2501
     12 O          10.3312   -0.5000    0.0000 O.2     1  UNL1       -0.2449
     13 O           2.5369   -4.0000    0.0000 O.3     1  UNL1       -0.2832
     14 O           4.2690   -5.0000    0.0000 O.3     1  UNL1       -0.2831
     15 O           8.5991   -5.5000    0.0000 O.3     1  UNL1       -0.2831
     16 O          10.3312   -6.5000    0.0000 O.3     1  UNL1       -0.2831
     17 C           6.8671    2.5000    0.0000 C.3     1  UNL1        0.1955
     18 C           7.7331    2.0000    0.0000 C.3     1  UNL1        0.2134
     19 C           6.0010    2.0000    0.0000 C.3     1  UNL1        0.2541
     20 C           7.7331    1.0000    0.0000 C.3     1  UNL1        0.1942
     21 C           7.7331    4.0000    0.0000 C.3     1  UNL1        0.2695
     22 C           6.0010    1.0000    0.0000 C.3     1  UNL1        0.2796
     23 C           7.7331    5.0000    0.0000 C.3     1  UNL1        0.2406
     24 C           8.5991    5.5000    0.0000 C.3     1  UNL1        0.2197
     25 C           9.4651    5.0000    0.0000 C.3     1  UNL1        0.2118
     26 C           9.4651    4.0000    0.0000 C.3     1  UNL1        0.1508
     27 C           8.5991    0.5000    0.0000 C.3     1  UNL1        0.2408
     28 C          10.3312    3.5000    0.0000 C.3     1  UNL1        0.0350
     29 C           5.1350   -0.5000    0.0000 C.3     1  UNL1        0.1496
     30 C           4.2690    2.0000    0.0000 C.2     1  UNL1        0.3177
     31 C           4.2690   -1.0000    0.0000 C.3     1  UNL1        0.0586
     32 C           3.4030    2.5000    0.0000 C.3     1  UNL1        0.1212
     33 C           9.4651   -1.0000    0.0000 C.2     1  UNL1        0.3415
     34 C           4.2690   -2.0000    0.0000 C.ar    1  UNL1       -0.0163
     35 C           3.4030   -2.5000    0.0000 C.ar    1  UNL1        0.0412
     36 C           9.4651   -2.0000    0.0000 C.2     1  UNL1        0.0819
     37 C           5.1350   -2.5000    0.0000 C.ar    1  UNL1       -0.0007
     38 C           3.4030   -3.5000    0.0000 C.ar    1  UNL1        0.2339
     39 C           5.1350   -3.5000    0.0000 C.ar    1  UNL1        0.0451
     40 C          10.3312   -2.5000    0.0000 C.2     1  UNL1        0.0068
     41 C           4.2690   -4.0000    0.0000 C.ar    1  UNL1        0.2342
     42 C          10.3312   -3.5000    0.0000 C.ar    1  UNL1        0.0036
     43 C           9.4651   -4.0000    0.0000 C.ar    1  UNL1        0.0454
     44 C          11.1972   -4.0000    0.0000 C.ar    1  UNL1        0.0035
     45 C           9.4651   -5.0000    0.0000 C.ar    1  UNL1        0.2343
     46 C          11.1972   -5.0000    0.0000 C.ar    1  UNL1        0.0454
     47 C          10.3312   -5.5000    0.0000 C.ar    1  UNL1        0.2343
@<TRIPOS>BOND
     1     2    20    1
     2     2    22    1
     3     3    21    1
     4     3    26    1
     5     4    30    1
     6     6    29    1
     7    10    27    1
     8    10    33    1
     9    11    30    2
    10    12    33    2
    11    13    38    1
    12    14    41    1
    13    15    45    1
    14    16    47    1
    15    17     1    1
    16    17    18    1
    17    17    19    1
    18    18     5    1
    19    18    20    1
    20    19     4    1
    21    19    22    1
    22    20    27    1
    23    21     1    1
    24    21    23    1
    25    22     6    1
    26    23     7    1
    27    23    24    1
    28    24     8    1
    29    24    25    1
    30    25     9    1
    31    25    26    1
    32    26    28    1
    33    29    31    1
    34    30    32    1
    35    31    34    1
    36    33    36    1
    37    34    35   ar
    38    34    37   ar
    39    35    38   ar
    40    36    40    2
    41    37    39   ar
    42    38    41   ar
    43    39    41   ar
    44    40    42    1
    45    42    43   ar
    46    42    44   ar
    47    43    45   ar
    48    44    46   ar
    49    45    47   ar
    50    46    47   ar
