@<TRIPOS>MOLECULE
IMPHY005874
 31 33 0 0 0
SMALL
GASTEIGER

@<TRIPOS>ATOM
      1 O           6.0682   -0.6154    0.0000 O.2     1  UNL1       -0.4542
      2 O           4.3198    2.4192    0.0000 O.3     1  UNL1       -0.5058
      3 O           6.0682    2.3846    0.0000 O.2     1  UNL1       -0.2869
      4 O           6.9343   -2.1154    0.0000 O.3     1  UNL1       -0.5059
      5 O           2.5381   -0.6395    0.0000 O.3     1  UNL1       -0.5065
      6 O          10.3984   -2.1154    0.0000 O.3     1  UNL1       -0.5066
      7 C           5.2022    0.8846    0.0000 C.ar    1  UNL1        0.1055
      8 C           5.2022   -0.1154    0.0000 C.ar    1  UNL1        0.1462
      9 C           6.9343   -0.1154    0.0000 C.ar    1  UNL1        0.1427
     10 C           7.8003   -0.6154    0.0000 C.ar    1  UNL1        0.0590
     11 C           6.0682    1.3846    0.0000 C.ar    1  UNL1        0.1966
     12 C           6.9343    0.8846    0.0000 C.ar    1  UNL1        0.0289
     13 C           4.3083    1.4193    0.0000 C.ar    1  UNL1        0.1347
     14 C           4.3083   -0.6501    0.0000 C.ar    1  UNL1        0.0231
     15 C           7.8003   -1.6154    0.0000 C.ar    1  UNL1        0.1310
     16 C           3.4022   -0.1362    0.0000 C.ar    1  UNL1        0.1239
     17 C           3.4022    0.9054    0.0000 C.ar    1  UNL1        0.0223
     18 C           8.6663   -0.1154    0.0000 C.ar    1  UNL1       -0.0441
     19 C           8.6663   -2.1154    0.0000 C.ar    1  UNL1        0.0220
     20 C           9.5323   -0.6154    0.0000 C.ar    1  UNL1       -0.0193
     21 C           9.5323   -1.6154    0.0000 C.ar    1  UNL1        0.1204
     22 H           7.4712    1.1946    0.0000 H       1  UNL1        0.0693
     23 H           4.3154   -1.2700    0.0000 H       1  UNL1        0.0691
     24 H           2.8665    1.2175    0.0000 H       1  UNL1        0.0691
     25 H           8.6663    0.5046    0.0000 H       1  UNL1        0.0627
     26 H           8.6663   -2.7354    0.0000 H       1  UNL1        0.0691
     27 H          10.0693   -0.3054    0.0000 H       1  UNL1        0.0654
     28 H           3.7865    2.7354    0.0000 H       1  UNL1        0.2922
     29 H           6.9343   -2.7354    0.0000 H       1  UNL1        0.2922
     30 H           2.0000   -0.3316    0.0000 H       1  UNL1        0.2921
     31 H          10.9353   -1.8054    0.0000 H       1  UNL1        0.2921
@<TRIPOS>BOND
     1     1     8   ar
     2     1     9   ar
     3     2    13    1
     4     2    28    1
     5     3    11    2
     6     4    15    1
     7     4    29    1
     8     5    16    1
     9     5    30    1
    10     6    21    1
    11     6    31    1
    12     7     8   ar
    13     7    11   ar
    14     7    13   ar
    15     8    14   ar
    16     9    10    1
    17     9    12   ar
    18    10    15   ar
    19    10    18   ar
    20    11    12   ar
    21    12    22    1
    22    13    17   ar
    23    14    16   ar
    24    14    23    1
    25    15    19   ar
    26    16    17   ar
    27    17    24    1
    28    18    20   ar
    29    18    25    1
    30    19    21   ar
    31    19    26    1
    32    20    21   ar
    33    20    27    1
