@<TRIPOS>MOLECULE
IMPHY002680
 54 56 0 0 0
SMALL
GASTEIGER

@<TRIPOS>ATOM
      1 O           2.0000    3.5271    0.0000 O.3     1  UNL1       -0.4914
      2 O           2.0000    1.5271    0.0000 O.3     1  UNL1       -0.5033
      3 O           4.5740   -2.9972    0.0000 O.3     1  UNL1       -0.4913
      4 O           6.2944   -4.0172    0.0000 O.3     1  UNL1       -0.4885
      5 O           8.0379   -3.0373    0.0000 O.3     1  UNL1       -0.5032
      6 N           6.3981    2.0063    0.0000 N.3     1  UNL1       -0.2981
      7 C           5.4920    1.4925    0.0000 C.3     1  UNL1        0.0360
      8 C           4.5981    2.0271    0.0000 C.ar    1  UNL1       -0.0234
      9 C           5.4804    0.4926    0.0000 C.3     1  UNL1       -0.0292
     10 C           6.3981    3.0480    0.0000 C.3     1  UNL1        0.0032
     11 C           5.4920    3.5618    0.0000 C.3     1  UNL1       -0.0144
     12 C           4.5981    3.0271    0.0000 C.ar    1  UNL1       -0.0378
     13 C           6.3406   -0.0174    0.0000 C.3     1  UNL1       -0.0257
     14 C           7.2622    1.5030    0.0000 C.3     1  UNL1       -0.0122
     15 C           3.7320    1.5271    0.0000 C.ar    1  UNL1       -0.0116
     16 C           3.7320    3.5271    0.0000 C.ar    1  UNL1       -0.0128
     17 C           6.3291   -1.0174    0.0000 C.ar    1  UNL1       -0.0402
     18 C           2.8660    2.0271    0.0000 C.ar    1  UNL1        0.1588
     19 C           2.8660    3.0271    0.0000 C.ar    1  UNL1        0.1615
     20 C           5.4573   -1.5073    0.0000 C.ar    1  UNL1       -0.0129
     21 C           7.1893   -1.5273    0.0000 C.ar    1  UNL1       -0.0131
     22 C           5.4458   -2.5072    0.0000 C.ar    1  UNL1        0.1654
     23 C           7.1777   -2.5273    0.0000 C.ar    1  UNL1        0.1624
     24 C           6.3060   -3.0172    0.0000 C.ar    1  UNL1        0.2033
     25 C           2.0000    4.5271    0.0000 C.3     1  UNL1        0.0790
     26 C           4.5624   -3.9971    0.0000 C.3     1  UNL1        0.0790
     27 C           7.1546   -4.5271    0.0000 C.3     1  UNL1        0.0791
     28 H           6.0259    1.1773    0.0000 H       1  UNL1        0.0512
     29 H           4.8712    0.6073    0.0000 H       1  UNL1        0.0287
     30 H           5.2617   -0.0876    0.0000 H       1  UNL1        0.0287
     31 H           7.0089    2.9419    0.0000 H       1  UNL1        0.0430
     32 H           6.6071    3.6316    0.0000 H       1  UNL1        0.0430
     33 H           5.8856    4.0408    0.0000 H       1  UNL1        0.0326
     34 H           5.0874    4.0316    0.0000 H       1  UNL1        0.0326
     35 H           6.9499   -0.1321    0.0000 H       1  UNL1        0.0314
     36 H           6.5594    0.5627    0.0000 H       1  UNL1        0.0314
     37 H           6.9501    0.9673    0.0000 H       1  UNL1        0.0391
     38 H           7.7979    1.1909    0.0000 H       1  UNL1        0.0391
     39 H           7.5742    2.0387    0.0000 H       1  UNL1        0.0391
     40 H           3.7320    0.9071    0.0000 H       1  UNL1        0.0658
     41 H           3.7320    4.1471    0.0000 H       1  UNL1        0.0658
     42 H           4.9240   -1.1911    0.0000 H       1  UNL1        0.0658
     43 H           7.7298   -1.2236    0.0000 H       1  UNL1        0.0658
     44 H           2.0000    0.9071    0.0000 H       1  UNL1        0.2923
     45 H           2.6200    4.5271    0.0000 H       1  UNL1        0.0660
     46 H           2.0000    5.1471    0.0000 H       1  UNL1        0.0660
     47 H           1.3800    4.5271    0.0000 H       1  UNL1        0.0660
     48 H           8.5784   -2.7335    0.0000 H       1  UNL1        0.2923
     49 H           3.9425   -3.9900    0.0000 H       1  UNL1        0.0660
     50 H           4.5553   -4.6171    0.0000 H       1  UNL1        0.0660
     51 H           5.1824   -4.0043    0.0000 H       1  UNL1        0.0660
     52 H           6.8384   -5.0605    0.0000 H       1  UNL1        0.0660
     53 H           7.6879   -4.8433    0.0000 H       1  UNL1        0.0660
     54 H           7.4708   -3.9938    0.0000 H       1  UNL1        0.0660
@<TRIPOS>BOND
     1     1    19    1
     2     1    25    1
     3     2    18    1
     4     2    44    1
     5     3    22    1
     6     3    26    1
     7     4    24    1
     8     4    27    1
     9     5    23    1
    10     5    48    1
    11     6     7    1
    12     6    10    1
    13     6    14    1
    14     7     8    1
    15     7     9    1
    16     7    28    1
    17     8    12   ar
    18     8    15   ar
    19     9    13    1
    20     9    29    1
    21     9    30    1
    22    10    11    1
    23    10    31    1
    24    10    32    1
    25    11    12    1
    26    11    33    1
    27    11    34    1
    28    12    16   ar
    29    13    17    1
    30    13    35    1
    31    13    36    1
    32    14    37    1
    33    14    38    1
    34    14    39    1
    35    15    18   ar
    36    15    40    1
    37    16    19   ar
    38    16    41    1
    39    17    20   ar
    40    17    21   ar
    41    18    19   ar
    42    20    22   ar
    43    20    42    1
    44    21    23   ar
    45    21    43    1
    46    22    24   ar
    47    23    24   ar
    48    25    45    1
    49    25    46    1
    50    25    47    1
    51    26    49    1
    52    26    50    1
    53    26    51    1
    54    27    52    1
    55    27    53    1
    56    27    54    1
