@<TRIPOS>MOLECULE
IMPHY006828
 81 85 0 0 0
SMALL
GASTEIGER

@<TRIPOS>ATOM
      1 O           2.5357   -2.3223    0.0000 O.3     1  UNL1       -0.3912
      2 O           4.3500   -4.1002    0.0000 O.3     1  UNL1       -0.3944
      3 O          11.5367    0.7828    0.0000 O.2     1  UNL1       -0.2968
      4 O          11.2187    3.7897    0.0000 O.3     1  UNL1       -0.4802
      5 O           9.7088    4.6383    0.0000 O.2     1  UNL1       -0.2504
      6 C           7.0628   -0.7699    0.0000 C.3     1  UNL1       -0.0194
      7 C           6.1968   -0.2699    0.0000 C.3     1  UNL1       -0.0257
      8 C           5.2868   -0.7768    0.0000 C.3     1  UNL1       -0.0249
      9 C           7.9288   -0.2699    0.0000 C.3     1  UNL1       -0.0051
     10 C           5.2787   -1.8184    0.0000 C.3     1  UNL1       -0.0255
     11 C           7.0789   -1.8114    0.0000 C.3     1  UNL1       -0.0463
     12 C           6.1808   -2.3392    0.0000 C.3     1  UNL1       -0.0485
     13 C           4.3433   -2.3681    0.0000 C.3     1  UNL1        0.0203
     14 C           7.9288    0.7301    0.0000 C.2     1  UNL1       -0.0630
     15 C           6.1968    0.7301    0.0000 C.3     1  UNL1       -0.0306
     16 C           4.3599   -0.2127    0.0000 C.3     1  UNL1       -0.0447
     17 C           8.8228   -0.8046    0.0000 C.3     1  UNL1       -0.0425
     18 C           8.8228    1.2647    0.0000 C.3     1  UNL1       -0.0063
     19 C           9.7288    0.7509    0.0000 C.3     1  UNL1        0.0328
     20 C           7.7056   -1.5360    0.0000 C.3     1  UNL1       -0.0585
     21 C           3.4037   -1.8256    0.0000 C.3     1  UNL1        0.0630
     22 C           5.2945    0.2232    0.0000 C.3     1  UNL1       -0.0590
     23 C           9.7288   -0.2908    0.0000 C.3     1  UNL1       -0.0396
     24 C           3.4120   -0.7407    0.0000 C.3     1  UNL1       -0.0257
     25 C           7.0628    1.2301    0.0000 C.2     1  UNL1       -0.0836
     26 C           8.2709   -1.2096    0.0000 C.3     1  UNL1       -0.0553
     27 C           8.7977    2.3494    0.0000 C.3     1  UNL1       -0.0297
     28 C           3.8467   -3.2361    0.0000 C.3     1  UNL1        0.0522
     29 C           4.8466   -3.2322    0.0000 C.3     1  UNL1       -0.0548
     30 C           9.7288    2.9063    0.0000 C.3     1  UNL1        0.0720
     31 C          10.6726    1.2861    0.0000 C.2     1  UNL1        0.1408
     32 C          10.5987    0.2576    0.0000 C.3     1  UNL1       -0.0523
     33 C          10.6726    2.3711    0.0000 C.3     1  UNL1        0.0219
     34 C           9.2188    3.7665    0.0000 C.3     1  UNL1       -0.0490
     35 C          10.2188    3.7781    0.0000 C.2     1  UNL1        0.3111
     36 H           6.9329    0.1551    0.0000 H       1  UNL1        0.0315
     37 H           5.2811   -2.4384    0.0000 H       1  UNL1        0.0313
     38 H           7.2969   -2.3918    0.0000 H       1  UNL1        0.0271
     39 H           7.6880   -1.6960    0.0000 H       1  UNL1        0.0271
     40 H           5.7835   -2.8152    0.0000 H       1  UNL1        0.0268
     41 H           6.5818   -2.8121    0.0000 H       1  UNL1        0.0268
     42 H           5.9847    1.3127    0.0000 H       1  UNL1        0.0310
     43 H           5.5862    0.6224    0.0000 H       1  UNL1        0.0310
     44 H           4.7681    0.2539    0.0000 H       1  UNL1        0.0271
     45 H           3.9700    0.2693    0.0000 H       1  UNL1        0.0271
     46 H           8.4182   -1.2744    0.0000 H       1  UNL1        0.0274
     47 H           9.2164   -1.2836    0.0000 H       1  UNL1        0.0274
     48 H           9.5522    1.7010    0.0000 H       1  UNL1        0.0355
     49 H           7.2306   -1.9345    0.0000 H       1  UNL1        0.0235
     50 H           8.1041   -2.0109    0.0000 H       1  UNL1        0.0235
     51 H           8.1805   -1.1375    0.0000 H       1  UNL1        0.0235
     52 H           3.4025   -2.4456    0.0000 H       1  UNL1        0.0599
     53 H           5.9145    0.2184    0.0000 H       1  UNL1        0.0235
     54 H           5.2993    0.8432    0.0000 H       1  UNL1        0.0235
     55 H           4.6745    0.2280    0.0000 H       1  UNL1        0.0235
     56 H           9.9379   -0.8744    0.0000 H       1  UNL1        0.0275
     57 H          10.3397   -0.1847    0.0000 H       1  UNL1        0.0275
     58 H           3.2075   -0.1554    0.0000 H       1  UNL1        0.0290
     59 H           2.8004   -0.8420    0.0000 H       1  UNL1        0.0290
     60 H           7.0628    1.8501    0.0000 H       1  UNL1        0.0572
     61 H           7.6884   -1.4217    0.0000 H       1  UNL1        0.0238
     62 H           8.4830   -1.7922    0.0000 H       1  UNL1        0.0238
     63 H           8.8535   -0.9975    0.0000 H       1  UNL1        0.0238
     64 H           8.5752    2.9281    0.0000 H       1  UNL1        0.0282
     65 H           8.1894    2.2292    0.0000 H       1  UNL1        0.0282
     66 H           3.3702   -2.8394    0.0000 H       1  UNL1        0.0563
     67 H           3.3732   -3.6364    0.0000 H       1  UNL1        0.0563
     68 H           4.3109   -3.5443    0.0000 H       1  UNL1        0.0237
     69 H           5.1587   -3.7679    0.0000 H       1  UNL1        0.0237
     70 H           5.3824   -2.9201    0.0000 H       1  UNL1        0.0237
     71 H          10.2928   -0.2817    0.0000 H       1  UNL1        0.0239
     72 H          11.1380   -0.0483    0.0000 H       1  UNL1        0.0239
     73 H          10.9045    0.7969    0.0000 H       1  UNL1        0.0239
     74 H          11.2835    2.2650    0.0000 H       1  UNL1        0.0352
     75 H          10.8817    2.9548    0.0000 H       1  UNL1        0.0352
     76 H           2.0000   -2.0102    0.0000 H       1  UNL1        0.2098
     77 H           9.7522    4.0827    0.0000 H       1  UNL1        0.0240
     78 H           8.9027    4.2998    0.0000 H       1  UNL1        0.0240
     79 H           8.6855    3.4503    0.0000 H       1  UNL1        0.0240
     80 H           4.0421   -4.6383    0.0000 H       1  UNL1        0.2094
     81 H          11.5225    4.3301    0.0000 H       1  UNL1        0.2951
@<TRIPOS>BOND
     1    21     1    1
     2     1    76    1
     3     2    28    1
     4     2    80    1
     5     3    31    2
     6     4    35    1
     7     4    81    1
     8     5    35    2
     9     6     7    1
    10     6     9    1
    11     6    11    1
    12     6    20    1
    13     7     8    1
    14     7    15    1
    15     7    36    1
    16     8    10    1
    17     8    16    1
    18     8    22    1
    19     9    14    1
    20     9    17    1
    21     9    26    1
    22    10    12    1
    23    10    13    1
    24    10    37    1
    25    11    12    1
    26    11    38    1
    27    11    39    1
    28    12    40    1
    29    12    41    1
    30    13    21    1
    31    13    28    1
    32    13    29    1
    33    14    18    1
    34    14    25    2
    35    15    25    1
    36    15    42    1
    37    15    43    1
    38    16    24    1
    39    16    44    1
    40    16    45    1
    41    17    23    1
    42    17    46    1
    43    17    47    1
    44    18    19    1
    45    18    27    1
    46    18    48    1
    47    19    23    1
    48    19    31    1
    49    19    32    1
    50    20    49    1
    51    20    50    1
    52    20    51    1
    53    21    24    1
    54    21    52    1
    55    22    53    1
    56    22    54    1
    57    22    55    1
    58    23    56    1
    59    23    57    1
    60    24    58    1
    61    24    59    1
    62    25    60    1
    63    26    61    1
    64    26    62    1
    65    26    63    1
    66    27    30    1
    67    27    64    1
    68    27    65    1
    69    28    66    1
    70    28    67    1
    71    29    68    1
    72    29    69    1
    73    29    70    1
    74    30    33    1
    75    30    34    1
    76    30    35    1
    77    31    33    1
    78    32    71    1
    79    32    72    1
    80    32    73    1
    81    33    74    1
    82    33    75    1
    83    34    77    1
    84    34    78    1
    85    34    79    1
