@<TRIPOS>MOLECULE
IMPHY004473
 29 30 0 0 0
SMALL
GASTEIGER

@<TRIPOS>ATOM
      1 O           5.4920   -1.9747    0.0000 O.2     1  UNL1       -0.4596
      2 O           2.0000   -1.9400    0.0000 O.3     1  UNL1       -0.5066
      3 O           5.4804    1.0946    0.0000 O.2     1  UNL1       -0.2870
      4 O           2.0000    1.0600    0.0000 O.2     1  UNL1       -0.2974
      5 C           3.7320    0.0600    0.0000 C.ar    1  UNL1       -0.0225
      6 C           4.5981   -0.4400    0.0000 C.ar    1  UNL1        0.0677
      7 C           4.5981   -1.4400    0.0000 C.ar    1  UNL1        0.1425
      8 C           3.7320    1.0600    0.0000 C.3     1  UNL1        0.0316
      9 C           2.8660   -0.4400    0.0000 C.ar    1  UNL1       -0.0157
     10 C           5.4920    0.0947    0.0000 C.ar    1  UNL1        0.1930
     11 C           3.7320   -1.9400    0.0000 C.ar    1  UNL1        0.0229
     12 C           2.8660   -1.4400    0.0000 C.ar    1  UNL1        0.1207
     13 C           6.3981   -1.4608    0.0000 C.ar    1  UNL1        0.1062
     14 C           6.3981   -0.4192    0.0000 C.ar    1  UNL1        0.0236
     15 C           2.8660    1.5600    0.0000 C.2     1  UNL1        0.1346
     16 C           7.2622   -1.9642    0.0000 C.3     1  UNL1       -0.0062
     17 C           2.8660    2.5600    0.0000 C.3     1  UNL1       -0.0057
     18 H           4.3426    0.9523    0.0000 H       1  UNL1        0.0390
     19 H           3.9441    1.6426    0.0000 H       1  UNL1        0.0390
     20 H           2.3291   -0.1300    0.0000 H       1  UNL1        0.0657
     21 H           3.7320   -2.5600    0.0000 H       1  UNL1        0.0691
     22 H           6.9338   -0.1071    0.0000 H       1  UNL1        0.0689
     23 H           6.9501   -2.4999    0.0000 H       1  UNL1        0.0308
     24 H           7.7979   -2.2762    0.0000 H       1  UNL1        0.0308
     25 H           7.5742   -1.4284    0.0000 H       1  UNL1        0.0308
     26 H           3.4860    2.5600    0.0000 H       1  UNL1        0.0306
     27 H           2.8660    3.1800    0.0000 H       1  UNL1        0.0306
     28 H           2.2460    2.5600    0.0000 H       1  UNL1        0.0306
     29 H           2.0000   -2.5600    0.0000 H       1  UNL1        0.2921
@<TRIPOS>BOND
     1     1     7   ar
     2     1    13   ar
     3     2    12    1
     4     2    29    1
     5     3    10    2
     6     4    15    2
     7     5     6   ar
     8     5     8    1
     9     5     9   ar
    10     6     7   ar
    11     6    10   ar
    12     7    11   ar
    13     8    15    1
    14     8    18    1
    15     8    19    1
    16     9    12   ar
    17     9    20    1
    18    10    14   ar
    19    11    12   ar
    20    11    21    1
    21    13    14   ar
    22    13    16    1
    23    14    22    1
    24    15    17    1
    25    16    23    1
    26    16    24    1
    27    16    25    1
    28    17    26    1
    29    17    27    1
    30    17    28    1
