@<TRIPOS>MOLECULE
IMPHY003064
 29 32 0 0 0
SMALL
GASTEIGER

@<TRIPOS>ATOM
      1 O           2.1084   -1.8021    0.0000 O.3     1  UNL1       -0.4898
      2 O           2.3382    0.2333    0.0000 O.2     1  UNL1       -0.2633
      3 N           4.0983    0.0451    0.0000 N.ar    1  UNL1       -0.2713
      4 N           5.7181   -2.0258    0.0000 N.ar    1  UNL1       -0.2533
      5 C           4.9073   -0.5427    0.0000 C.ar    1  UNL1        0.0833
      6 C           5.7164    0.0451    0.0000 C.ar    1  UNL1        0.0115
      7 C           4.4073    0.9962    0.0000 C.ar    1  UNL1        0.0580
      8 C           5.4073    0.9962    0.0000 C.ar    1  UNL1        0.0082
      9 C           4.8144   -1.5801    0.0000 C.ar    1  UNL1        0.0919
     10 C           3.1403   -0.3638    0.0000 C.ar    1  UNL1        0.2982
     11 C           6.5726   -0.4858    0.0000 C.ar    1  UNL1       -0.0338
     12 C           3.8727    1.8901    0.0000 C.ar    1  UNL1       -0.0371
     13 C           5.9420    1.8901    0.0000 C.ar    1  UNL1       -0.0520
     14 C           3.8662   -2.0111    0.0000 C.ar    1  UNL1        0.0129
     15 C           3.0235   -1.3989    0.0000 C.ar    1  UNL1        0.1869
     16 C           6.5735   -1.4934    0.0000 C.ar    1  UNL1        0.0290
     17 C           4.3865    2.7962    0.0000 C.ar    1  UNL1       -0.0598
     18 C           5.4282    2.7962    0.0000 C.ar    1  UNL1       -0.0611
     19 C           2.0000   -2.7962    0.0000 C.3     1  UNL1        0.0790
     20 H           7.1143   -0.1841    0.0000 H       1  UNL1        0.0639
     21 H           3.2527    1.8830    0.0000 H       1  UNL1        0.0638
     22 H           6.5620    1.8830    0.0000 H       1  UNL1        0.0624
     23 H           3.8037   -2.6280    0.0000 H       1  UNL1        0.0678
     24 H           7.1156   -1.7942    0.0000 H       1  UNL1        0.0830
     25 H           4.0745    3.3319    0.0000 H       1  UNL1        0.0618
     26 H           5.7402    3.3319    0.0000 H       1  UNL1        0.0618
     27 H           1.3836   -2.7290    0.0000 H       1  UNL1        0.0660
     28 H           1.9328   -3.4126    0.0000 H       1  UNL1        0.0660
     29 H           2.6164   -2.8634    0.0000 H       1  UNL1        0.0660
@<TRIPOS>BOND
     1     1    15    1
     2     1    19    1
     3     2    10    2
     4     3     5   ar
     5     3     7   ar
     6     3    10   ar
     7     4     9   ar
     8     4    16   ar
     9     5     6   ar
    10     5     9   ar
    11     6     8   ar
    12     6    11   ar
    13     7     8   ar
    14     7    12   ar
    15     8    13   ar
    16     9    14   ar
    17    10    15   ar
    18    11    16   ar
    19    11    20    1
    20    12    17   ar
    21    12    21    1
    22    13    18   ar
    23    13    22    1
    24    14    15   ar
    25    14    23    1
    26    16    24    1
    27    17    18   ar
    28    17    25    1
    29    18    26    1
    30    19    27    1
    31    19    28    1
    32    19    29    1
