@<TRIPOS>MOLECULE
IMPHY017104
 17 17 0 0 0
SMALL
GASTEIGER

@<TRIPOS>ATOM
      1 O           2.0000   -0.0093    0.0000 O.2     1  UNL1       -0.2971
      2 C           3.7601    0.2694    0.0000 C.3     1  UNL1        0.0147
      3 C           4.5691   -0.3184    0.0000 C.3     1  UNL1       -0.0434
      4 C           4.2601   -1.2694    0.0000 C.3     1  UNL1       -0.0457
      5 C           3.2601   -1.2694    0.0000 C.3     1  UNL1        0.0061
      6 C           2.9511   -0.3184    0.0000 C.2     1  UNL1        0.1362
      7 C           3.7601    1.2694    0.0000 C.3     1  UNL1       -0.0557
      8 H           4.5174    0.6553    0.0000 H       1  UNL1        0.0375
      9 H           5.1355   -0.5705    0.0000 H       1  UNL1        0.0272
     10 H           4.8791    0.2186    0.0000 H       1  UNL1        0.0272
     11 H           4.1953   -1.8860    0.0000 H       1  UNL1        0.0269
     12 H           4.8665   -1.3983    0.0000 H       1  UNL1        0.0269
     13 H           2.6536   -1.3983    0.0000 H       1  UNL1        0.0342
     14 H           3.3249   -1.8860    0.0000 H       1  UNL1        0.0342
     15 H           4.3801    1.2694    0.0000 H       1  UNL1        0.0236
     16 H           3.7601    1.8894    0.0000 H       1  UNL1        0.0236
     17 H           3.1401    1.2694    0.0000 H       1  UNL1        0.0236
@<TRIPOS>BOND
     1     1     6    2
     2     2     3    1
     3     2     6    1
     4     2     7    1
     5     2     8    1
     6     3     4    1
     7     3     9    1
     8     3    10    1
     9     4     5    1
    10     4    11    1
    11     4    12    1
    12     5     6    1
    13     5    13    1
    14     5    14    1
    15     7    15    1
    16     7    16    1
    17     7    17    1
