@<TRIPOS>MOLECULE
IMPHY008575
 52 53 0 0 0
SMALL
GASTEIGER

@<TRIPOS>ATOM
      1 O           6.0010   -0.7689    0.0000 O.3     1  UNL1       -0.3484
      2 O           4.2690   -0.7689    0.0000 O.3     1  UNL1       -0.3405
      3 O           9.3703    2.6790    0.0000 O.3     1  UNL1       -0.4804
      4 O           8.8351    1.0317    0.0000 O.2     1  UNL1       -0.2507
      5 O           6.0010   -2.7689    0.0000 O.3     1  UNL1       -0.3841
      6 O           4.2690   -3.7689    0.0000 O.3     1  UNL1       -0.3864
      7 O           2.5369   -2.7689    0.0000 O.3     1  UNL1       -0.3865
      8 O           2.5369    0.2311    0.0000 O.3     1  UNL1       -0.3924
      9 C           6.8671    1.7311    0.0000 C.3     1  UNL1       -0.0232
     10 C           7.6761    2.3189    0.0000 C.3     1  UNL1        0.0620
     11 C           7.3671    3.2699    0.0000 C.3     1  UNL1       -0.0307
     12 C           6.0580    2.3189    0.0000 C.3     1  UNL1       -0.0489
     13 C           6.3671    3.2699    0.0000 C.3     1  UNL1       -0.0494
     14 C           6.8671    0.7311    0.0000 C.3     1  UNL1       -0.0167
     15 C           6.0010    0.2311    0.0000 C.3     1  UNL1        0.0536
     16 C           7.9548    4.0789    0.0000 C.3     1  UNL1       -0.0617
     17 C           8.6271    2.0098    0.0000 C.2     1  UNL1        0.3084
     18 C           7.7331    0.2311    0.0000 C.3     1  UNL1       -0.0601
     19 C           5.1350   -1.2689    0.0000 C.3     1  UNL1        0.1879
     20 C           5.1350   -2.2689    0.0000 C.3     1  UNL1        0.1341
     21 C           4.2690   -2.7689    0.0000 C.3     1  UNL1        0.1141
     22 C           3.4030   -2.2689    0.0000 C.3     1  UNL1        0.1119
     23 C           3.4030   -1.2689    0.0000 C.3     1  UNL1        0.1130
     24 C           2.5369   -0.7689    0.0000 C.3     1  UNL1        0.0730
     25 H           6.3146    1.4496    0.0000 H       1  UNL1        0.0312
     26 H           8.1145    2.7573    0.0000 H       1  UNL1        0.0419
     27 H           7.9794    3.1729    0.0000 H       1  UNL1        0.0306
     28 H           5.4916    2.5710    0.0000 H       1  UNL1        0.0268
     29 H           5.7480    1.7819    0.0000 H       1  UNL1        0.0268
     30 H           6.4319    3.8865    0.0000 H       1  UNL1        0.0268
     31 H           5.7606    3.3988    0.0000 H       1  UNL1        0.0268
     32 H           6.8671    0.1111    0.0000 H       1  UNL1        0.0323
     33 H           5.7890    0.8137    0.0000 H       1  UNL1        0.0563
     34 H           5.3905    0.1234    0.0000 H       1  UNL1        0.0563
     35 H           8.4564    3.7145    0.0000 H       1  UNL1        0.0233
     36 H           8.3193    4.5805    0.0000 H       1  UNL1        0.0233
     37 H           7.4533    4.4434    0.0000 H       1  UNL1        0.0233
     38 H           7.4231   -0.3059    0.0000 H       1  UNL1        0.0233
     39 H           8.2700   -0.0789    0.0000 H       1  UNL1        0.0233
     40 H           8.0431    0.7680    0.0000 H       1  UNL1        0.0233
     41 H           5.1350   -0.6489    0.0000 H       1  UNL1        0.0937
     42 H           5.1350   -2.8889    0.0000 H       1  UNL1        0.0671
     43 H           3.7320   -3.0789    0.0000 H       1  UNL1        0.0648
     44 H           3.4030   -2.8889    0.0000 H       1  UNL1        0.0647
     45 H           3.4030   -0.6489    0.0000 H       1  UNL1        0.0647
     46 H           1.9264   -0.6613    0.0000 H       1  UNL1        0.0584
     47 H           2.3249   -1.3515    0.0000 H       1  UNL1        0.0584
     48 H           9.9599    2.4874    0.0000 H       1  UNL1        0.2951
     49 H           6.5380   -2.4589    0.0000 H       1  UNL1        0.2101
     50 H           3.7320   -4.0789    0.0000 H       1  UNL1        0.2100
     51 H           2.0000   -2.4589    0.0000 H       1  UNL1        0.2100
     52 H           2.0000    0.5411    0.0000 H       1  UNL1        0.2095
@<TRIPOS>BOND
     1     1    15    1
     2     1    19    1
     3     2    19    1
     4     2    23    1
     5     3    17    1
     6     3    48    1
     7     4    17    2
     8     5    20    1
     9     5    49    1
    10     6    21    1
    11     6    50    1
    12     7    22    1
    13     7    51    1
    14     8    24    1
    15     8    52    1
    16     9    10    1
    17     9    12    1
    18     9    14    1
    19     9    25    1
    20    10    11    1
    21    10    17    1
    22    10    26    1
    23    11    13    1
    24    11    16    1
    25    11    27    1
    26    12    13    1
    27    12    28    1
    28    12    29    1
    29    13    30    1
    30    13    31    1
    31    14    15    1
    32    14    18    1
    33    14    32    1
    34    15    33    1
    35    15    34    1
    36    16    35    1
    37    16    36    1
    38    16    37    1
    39    18    38    1
    40    18    39    1
    41    18    40    1
    42    19    20    1
    43    19    41    1
    44    20    21    1
    45    20    42    1
    46    21    22    1
    47    21    43    1
    48    22    23    1
    49    22    44    1
    50    23    24    1
    51    23    45    1
    52    24    46    1
    53    24    47    1
