@<TRIPOS>MOLECULE
IMPHY005318
 34 35 0 0 0
SMALL
GASTEIGER

@<TRIPOS>ATOM
      1 O           4.5981    0.0950    0.0000 O.3     1  UNL1       -0.3911
      2 O           7.1962    3.5950    0.0000 O.3     1  UNL1       -0.5068
      3 O           2.8660   -3.9050    0.0000 O.3     1  UNL1       -0.5068
      4 C           3.7320    0.5950    0.0000 C.3     1  UNL1        0.0632
      5 C           2.8660    0.0950    0.0000 C.3     1  UNL1       -0.0012
      6 C           3.7320    1.5950    0.0000 C.3     1  UNL1       -0.0012
      7 C           2.8660   -0.9050    0.0000 C.ar    1  UNL1       -0.0447
      8 C           4.5981    2.0950    0.0000 C.ar    1  UNL1       -0.0447
      9 C           5.4641    1.5950    0.0000 C.ar    1  UNL1       -0.0550
     10 C           2.0000   -1.4050    0.0000 C.ar    1  UNL1       -0.0550
     11 C           4.5981    3.0950    0.0000 C.ar    1  UNL1       -0.0550
     12 C           3.7320   -1.4050    0.0000 C.ar    1  UNL1       -0.0550
     13 C           2.0000   -2.4050    0.0000 C.ar    1  UNL1       -0.0199
     14 C           6.3301    2.0950    0.0000 C.ar    1  UNL1       -0.0199
     15 C           3.7320   -2.4050    0.0000 C.ar    1  UNL1       -0.0199
     16 C           5.4641    3.5950    0.0000 C.ar    1  UNL1       -0.0199
     17 C           2.8660   -2.9050    0.0000 C.ar    1  UNL1        0.1169
     18 C           6.3301    3.0950    0.0000 C.ar    1  UNL1        0.1169
     19 H           3.7320   -0.0250    0.0000 H       1  UNL1        0.0600
     20 H           2.6540    0.6776    0.0000 H       1  UNL1        0.0338
     21 H           2.2554   -0.0127    0.0000 H       1  UNL1        0.0338
     22 H           3.5200    2.1776    0.0000 H       1  UNL1        0.0338
     23 H           3.1215    1.4873    0.0000 H       1  UNL1        0.0338
     24 H           1.4631   -1.0950    0.0000 H       1  UNL1        0.0621
     25 H           5.4641    0.9750    0.0000 H       1  UNL1        0.0621
     26 H           4.0611    3.4050    0.0000 H       1  UNL1        0.0621
     27 H           4.2690   -1.0950    0.0000 H       1  UNL1        0.0621
     28 H           5.1350    0.4050    0.0000 H       1  UNL1        0.2098
     29 H           1.4631   -2.7150    0.0000 H       1  UNL1        0.0654
     30 H           6.8671    1.7850    0.0000 H       1  UNL1        0.0654
     31 H           4.2690   -2.7150    0.0000 H       1  UNL1        0.0654
     32 H           5.4641    4.2150    0.0000 H       1  UNL1        0.0654
     33 H           2.3291   -4.2150    0.0000 H       1  UNL1        0.2921
     34 H           7.1962    4.2150    0.0000 H       1  UNL1        0.2921
@<TRIPOS>BOND
     1     1     4    1
     2     1    28    1
     3     2    18    1
     4     2    34    1
     5     3    17    1
     6     3    33    1
     7     4     5    1
     8     4     6    1
     9     4    19    1
    10     5     7    1
    11     5    20    1
    12     5    21    1
    13     6     8    1
    14     6    22    1
    15     6    23    1
    16     7    10   ar
    17     7    12   ar
    18     8     9   ar
    19     8    11   ar
    20     9    14   ar
    21     9    25    1
    22    10    13   ar
    23    10    24    1
    24    11    16   ar
    25    11    26    1
    26    12    15   ar
    27    12    27    1
    28    13    17   ar
    29    13    29    1
    30    14    18   ar
    31    14    30    1
    32    15    17   ar
    33    15    31    1
    34    16    18   ar
    35    16    32    1
