@<TRIPOS>MOLECULE
IMPHY009053
 50 51 0 0 0
SMALL
GASTEIGER

@<TRIPOS>ATOM
      1 O           4.5981   -3.5000    0.0000 O.3     1  UNL1       -0.4947
      2 O           2.8660   -0.5000    0.0000 O.3     1  UNL1       -0.4943
      3 O           3.7320    1.0000    0.0000 O.2     1  UNL1       -0.2870
      4 O           4.5981    2.5000    0.0000 O.2     1  UNL1       -0.5061
      5 C           5.4641   -2.0000    0.0000 C.ar    1  UNL1       -0.0011
      6 C           6.3301   -2.5000    0.0000 C.3     1  UNL1       -0.0058
      7 C           4.5981   -0.5000    0.0000 C.ar    1  UNL1        0.0639
      8 C           4.5981   -2.5000    0.0000 C.ar    1  UNL1        0.1271
      9 C           5.4641   -1.0000    0.0000 C.ar    1  UNL1       -0.0405
     10 C           3.7320   -1.0000    0.0000 C.ar    1  UNL1        0.1344
     11 C           3.7320   -2.0000    0.0000 C.ar    1  UNL1        0.0227
     12 C           7.1962   -2.0000    0.0000 C.2     1  UNL1       -0.0809
     13 C           4.5981    0.5000    0.0000 C.2     1  UNL1        0.1930
     14 C           8.0622   -2.5000    0.0000 C.2     1  UNL1       -0.0793
     15 C           5.4641    1.0000    0.0000 C.2     1  UNL1        0.0278
     16 C           8.9282   -2.0000    0.0000 C.3     1  UNL1       -0.0440
     17 C           8.0622   -3.5000    0.0000 C.3     1  UNL1       -0.0440
     18 C           5.4641    2.0000    0.0000 C.2     1  UNL1        0.1276
     19 C           6.3301    2.5000    0.0000 C.ar    1  UNL1        0.0165
     20 C           3.7320   -4.0000    0.0000 C.3     1  UNL1        0.0788
     21 C           2.0000   -1.0000    0.0000 C.3     1  UNL1        0.0788
     22 C           7.1962    2.0000    0.0000 C.ar    1  UNL1       -0.0511
     23 C           6.3301    3.5000    0.0000 C.ar    1  UNL1       -0.0511
     24 C           8.0622    2.5000    0.0000 C.ar    1  UNL1       -0.0611
     25 C           7.1962    4.0000    0.0000 C.ar    1  UNL1       -0.0611
     26 C           8.0622    3.5000    0.0000 C.ar    1  UNL1       -0.0617
     27 H           5.9316   -2.9750    0.0000 H       1  UNL1        0.0357
     28 H           6.7287   -2.9750    0.0000 H       1  UNL1        0.0357
     29 H           6.0010   -0.6900    0.0000 H       1  UNL1        0.0630
     30 H           3.1951   -2.3100    0.0000 H       1  UNL1        0.0691
     31 H           7.1962   -1.3800    0.0000 H       1  UNL1        0.0575
     32 H           6.0010    0.6900    0.0000 H       1  UNL1        0.0693
     33 H           9.2382   -2.5369    0.0000 H       1  UNL1        0.0274
     34 H           7.4422   -3.5000    0.0000 H       1  UNL1        0.0274
     35 H           8.0622   -4.1200    0.0000 H       1  UNL1        0.0274
     36 H           8.6822   -3.5000    0.0000 H       1  UNL1        0.0274
     37 H           9.4651   -1.6900    0.0000 H       1  UNL1        0.0274
     38 H           8.6182   -1.4631    0.0000 H       1  UNL1        0.0274
     39 H           3.4220   -3.4631    0.0000 H       1  UNL1        0.0660
     40 H           3.1951   -4.3100    0.0000 H       1  UNL1        0.0660
     41 H           4.0420   -4.5369    0.0000 H       1  UNL1        0.0660
     42 H           1.6900   -0.4631    0.0000 H       1  UNL1        0.0660
     43 H           1.4631   -1.3100    0.0000 H       1  UNL1        0.0660
     44 H           2.3100   -1.5369    0.0000 H       1  UNL1        0.0660
     45 H           7.1962    1.3800    0.0000 H       1  UNL1        0.0625
     46 H           5.7932    3.8100    0.0000 H       1  UNL1        0.0625
     47 H           8.5991    2.1900    0.0000 H       1  UNL1        0.0618
     48 H           7.1962    4.6200    0.0000 H       1  UNL1        0.0618
     49 H           8.5991    3.8100    0.0000 H       1  UNL1        0.0618
     50 H           4.5981    3.1200    0.0000 H       1  UNL1        0.2922
@<TRIPOS>BOND
     1     1     8    1
     2     1    20    1
     3     2    10    1
     4     2    21    1
     5     3    13    2
     6     4    18    1
     7     4    50    1
     8     5     6    1
     9     5     8   ar
    10     5     9   ar
    11     6    12    1
    12     6    27    1
    13     6    28    1
    14     7     9   ar
    15     7    10   ar
    16     7    13    1
    17     8    11   ar
    18     9    29    1
    19    10    11   ar
    20    11    30    1
    21    12    14    2
    22    12    31    1
    23    13    15    1
    24    14    16    1
    25    14    17    1
    26    15    18    2
    27    15    32    1
    28    16    33    1
    29    16    37    1
    30    16    38    1
    31    17    34    1
    32    17    35    1
    33    17    36    1
    34    18    19    1
    35    19    22   ar
    36    19    23   ar
    37    20    39    1
    38    20    40    1
    39    20    41    1
    40    21    42    1
    41    21    43    1
    42    21    44    1
    43    22    24   ar
    44    22    45    1
    45    23    25   ar
    46    23    46    1
    47    24    26   ar
    48    24    47    1
    49    25    26   ar
    50    25    48    1
    51    26    49    1
