@<TRIPOS>MOLECULE
IMPHY003052
 125 131 0 0 0
SMALL
GASTEIGER

@<TRIPOS>ATOM
      1 O           6.9199   -4.9709    0.0000 O.3     1  UNL1       -0.3881
      2 O           7.8330    1.7526    0.0000 O.3     1  UNL1       -0.3941
      3 O           9.0114   -4.9467    0.0000 O.3     1  UNL1       -0.3892
      4 O           6.0010   -4.6635    0.0000 O.3     1  UNL1       -0.4318
      5 O           9.9719    3.9660    0.0000 O.3     1  UNL1       -0.4318
      6 O           5.1350   -3.1635    0.0000 O.2     1  UNL1       -0.2500
      7 O           8.4686    3.1058    0.0000 O.2     1  UNL1       -0.2501
      8 O           4.2690   -4.6635    0.0000 O.3     1  UNL1       -0.3312
      9 O           8.4753    4.8378    0.0000 O.3     1  UNL1       -0.3312
     10 O           6.0010   -6.6635    0.0000 O.3     1  UNL1       -0.3829
     11 O          10.9786    5.6942    0.0000 O.3     1  UNL1       -0.3829
     12 O           4.2690   -7.6635    0.0000 O.3     1  UNL1       -0.3864
     13 O           9.9853    7.4301    0.0000 O.3     1  UNL1       -0.3864
     14 O           2.5369   -6.6635    0.0000 O.3     1  UNL1       -0.3865
     15 O           7.9853    7.4378    0.0000 O.3     1  UNL1       -0.3865
     16 O           2.5369   -3.6635    0.0000 O.3     1  UNL1       -0.3924
     17 O           6.4820    6.5776    0.0000 O.3     1  UNL1       -0.3924
     18 C           8.4547   -0.4379    0.0000 C.3     1  UNL1       -0.0170
     19 C           8.9581   -1.3020    0.0000 C.3     1  UNL1       -0.0256
     20 C           8.4547   -2.2140    0.0000 C.3     1  UNL1       -0.0221
     21 C           8.9514    0.4300    0.0000 C.3     1  UNL1        0.0208
     22 C           7.4132   -2.2260    0.0000 C.3     1  UNL1       -0.0172
     23 C           7.4132   -0.4259    0.0000 C.3     1  UNL1       -0.0462
     24 C           9.9514    0.4339    0.0000 C.2     1  UNL1       -0.0604
     25 C           6.8889   -1.3259    0.0000 C.3     1  UNL1       -0.0481
     26 C          10.4826    1.3299    0.0000 C.3     1  UNL1       -0.0031
     27 C           6.8671   -3.1635    0.0000 C.3     1  UNL1        0.0964
     28 C           9.9581   -1.2982    0.0000 C.3     1  UNL1       -0.0306
     29 C           8.4133    1.3219    0.0000 C.3     1  UNL1       -0.0400
     30 C           9.0224   -3.1386    0.0000 C.3     1  UNL1       -0.0184
     31 C           9.9653    2.2340    0.0000 C.3     1  UNL1        0.0744
     32 C           7.6862    0.2019    0.0000 C.3     1  UNL1       -0.0584
     33 C           8.9236    2.2300    0.0000 C.3     1  UNL1       -0.0358
     34 C          10.4547   -0.4302    0.0000 C.2     1  UNL1       -0.0836
     35 C           7.4132   -4.1011    0.0000 C.3     1  UNL1        0.0967
     36 C           9.4547   -2.2024    0.0000 C.3     1  UNL1       -0.0589
     37 C           8.0104    0.7685    0.0000 C.3     1  UNL1        0.0540
     38 C           8.4981   -4.0885    0.0000 C.3     1  UNL1        0.0826
     39 C          11.5674    1.3090    0.0000 C.3     1  UNL1       -0.0403
     40 C          10.4969    3.1798    0.0000 C.3     1  UNL1       -0.0362
     41 C          12.1207    2.2423    0.0000 C.3     1  UNL1       -0.0343
     42 C          11.5819    3.1840    0.0000 C.3     1  UNL1       -0.0468
     43 C           6.0010   -2.6635    0.0000 C.3     1  UNL1       -0.0466
     44 C           6.0010   -3.6635    0.0000 C.2     1  UNL1        0.3182
     45 C           9.4686    3.1019    0.0000 C.2     1  UNL1        0.3161
     46 C          12.9906    2.7356    0.0000 C.3     1  UNL1       -0.0598
     47 C          12.9829    1.7356    0.0000 C.3     1  UNL1       -0.0598
     48 C           5.1350   -5.1635    0.0000 C.3     1  UNL1        0.2337
     49 C           9.4753    4.8340    0.0000 C.3     1  UNL1        0.2337
     50 C           5.1350   -6.1635    0.0000 C.3     1  UNL1        0.1455
     51 C           9.9786    5.6980    0.0000 C.3     1  UNL1        0.1455
     52 C           4.2690   -6.6635    0.0000 C.3     1  UNL1        0.1152
     53 C           9.4820    6.5660    0.0000 C.3     1  UNL1        0.1152
     54 C           3.4030   -5.1635    0.0000 C.3     1  UNL1        0.1140
     55 C           7.9786    5.7058    0.0000 C.3     1  UNL1        0.1140
     56 C           3.4030   -6.1635    0.0000 C.3     1  UNL1        0.1120
     57 C           8.4820    6.5698    0.0000 C.3     1  UNL1        0.1120
     58 C           2.5369   -4.6635    0.0000 C.3     1  UNL1        0.0731
     59 C           6.9786    5.7096    0.0000 C.3     1  UNL1        0.0731
     60 H           9.3916   -2.0332    0.0000 H       1  UNL1        0.0315
     61 H           6.5632   -2.2260    0.0000 H       1  UNL1        0.0317
     62 H           7.5263    0.1837    0.0000 H       1  UNL1        0.0271
     63 H           6.8319   -0.2101    0.0000 H       1  UNL1        0.0271
     64 H           6.4145   -0.9268    0.0000 H       1  UNL1        0.0269
     65 H           6.4145   -1.7251    0.0000 H       1  UNL1        0.0269
     66 H          10.8962    0.5873    0.0000 H       1  UNL1        0.0357
     67 H           9.8528   -1.9091    0.0000 H       1  UNL1        0.0310
     68 H          10.5415   -1.5079    0.0000 H       1  UNL1        0.0310
     69 H           7.9328    1.7137    0.0000 H       1  UNL1        0.0275
     70 H           7.9451    0.9155    0.0000 H       1  UNL1        0.0275
     71 H           9.5059   -3.5267    0.0000 H       1  UNL1        0.0296
     72 H           9.4875   -2.7286    0.0000 H       1  UNL1        0.0296
     73 H           8.0829    0.6784    0.0000 H       1  UNL1        0.0235
     74 H           7.2097    0.5986    0.0000 H       1  UNL1        0.0235
     75 H           7.2895   -0.2746    0.0000 H       1  UNL1        0.0235
     76 H           9.0274    2.8412    0.0000 H       1  UNL1        0.0276
     77 H           8.3392    2.4368    0.0000 H       1  UNL1        0.0276
     78 H          11.0747   -0.4278    0.0000 H       1  UNL1        0.0572
     79 H           6.5632   -4.1060    0.0000 H       1  UNL1        0.0630
     80 H           9.4618   -2.8223    0.0000 H       1  UNL1        0.0235
     81 H          10.0746   -2.1952    0.0000 H       1  UNL1        0.0235
     82 H           9.4475   -1.5824    0.0000 H       1  UNL1        0.0235
     83 H           7.3904    0.7661    0.0000 H       1  UNL1        0.0566
     84 H           7.9051    0.1575    0.0000 H       1  UNL1        0.0566
     85 H           8.0831   -4.8303    0.0000 H       1  UNL1        0.0619
     86 H          11.4496    0.7003    0.0000 H       1  UNL1        0.0276
     87 H          12.1469    1.0887    0.0000 H       1  UNL1        0.0276
     88 H          10.6006    3.7911    0.0000 H       1  UNL1        0.0276
     89 H           9.9124    3.3866    0.0000 H       1  UNL1        0.0276
     90 H          12.1647    3.3953    0.0000 H       1  UNL1        0.0271
     91 H          11.4734    3.7944    0.0000 H       1  UNL1        0.0271
     92 H           6.3110   -2.1266    0.0000 H       1  UNL1        0.0241
     93 H           5.4641   -2.3535    0.0000 H       1  UNL1        0.0241
     94 H           5.6910   -3.2005    0.0000 H       1  UNL1        0.0241
     95 H          13.2964    2.1963    0.0000 H       1  UNL1        0.0235
     96 H          13.5299    3.0414    0.0000 H       1  UNL1        0.0235
     97 H          12.6847    3.2749    0.0000 H       1  UNL1        0.0235
     98 H          12.6687    1.2011    0.0000 H       1  UNL1        0.0235
     99 H          13.5174    1.4215    0.0000 H       1  UNL1        0.0235
    100 H          13.2970    2.2702    0.0000 H       1  UNL1        0.0235
    101 H           7.2340   -5.5054    0.0000 H       1  UNL1        0.2099
    102 H           7.2495    1.9624    0.0000 H       1  UNL1        0.2094
    103 H           9.6313   -4.9372    0.0000 H       1  UNL1        0.2099
    104 H           5.1350   -4.3135    0.0000 H       1  UNL1        0.1085
    105 H           9.0474    4.0995    0.0000 H       1  UNL1        0.1085
    106 H           5.1350   -7.0135    0.0000 H       1  UNL1        0.0683
    107 H          10.4008    4.9603    0.0000 H       1  UNL1        0.0683
    108 H           3.5329   -7.0885    0.0000 H       1  UNL1        0.0648
    109 H          10.3320    6.5627    0.0000 H       1  UNL1        0.0648
    110 H           3.4030   -4.3135    0.0000 H       1  UNL1        0.0647
    111 H           7.5508    4.9713    0.0000 H       1  UNL1        0.0647
    112 H           2.6668   -5.7385    0.0000 H       1  UNL1        0.0647
    113 H           8.9098    7.3043    0.0000 H       1  UNL1        0.0647
    114 H           6.5380   -6.3535    0.0000 H       1  UNL1        0.2102
    115 H          11.2907    6.2299    0.0000 H       1  UNL1        0.2102
    116 H           1.9264   -4.5559    0.0000 H       1  UNL1        0.0584
    117 H           2.3249   -5.2461    0.0000 H       1  UNL1        0.0584
    118 H           6.3952    5.4998    0.0000 H       1  UNL1        0.0584
    119 H           7.0840    5.0986    0.0000 H       1  UNL1        0.0584
    120 H           3.7320   -7.9735    0.0000 H       1  UNL1        0.2100
    121 H           9.6774    7.9682    0.0000 H       1  UNL1        0.2100
    122 H           2.0000   -6.3535    0.0000 H       1  UNL1        0.2100
    123 H           8.2974    7.9735    0.0000 H       1  UNL1        0.2100
    124 H           2.0000   -3.3535    0.0000 H       1  UNL1        0.2095
    125 H           5.8620    6.5799    0.0000 H       1  UNL1        0.2095
@<TRIPOS>BOND
     1     1    35    1
     2     1   101    1
     3     2    37    1
     4     2   102    1
     5     3    38    1
     6     3   103    1
     7     4    44    1
     8     4    48    1
     9     5    45    1
    10     5    49    1
    11     6    44    2
    12     7    45    2
    13     8    48    1
    14     8    54    1
    15     9    49    1
    16     9    55    1
    17    10    50    1
    18    10   114    1
    19    11    51    1
    20    11   115    1
    21    12    52    1
    22    12   120    1
    23    13    53    1
    24    13   121    1
    25    14    56    1
    26    14   122    1
    27    15    57    1
    28    15   123    1
    29    16    58    1
    30    16   124    1
    31    17    59    1
    32    17   125    1
    33    18    19    1
    34    18    21    1
    35    18    23    1
    36    18    32    1
    37    19    20    1
    38    19    28    1
    39    19    60    1
    40    20    22    1
    41    20    30    1
    42    20    36    1
    43    21    24    1
    44    21    29    1
    45    21    37    1
    46    22    25    1
    47    22    27    1
    48    22    61    1
    49    23    25    1
    50    23    62    1
    51    23    63    1
    52    24    26    1
    53    24    34    2
    54    25    64    1
    55    25    65    1
    56    26    31    1
    57    26    39    1
    58    26    66    1
    59    27    35    1
    60    27    43    1
    61    27    44    1
    62    28    34    1
    63    28    67    1
    64    28    68    1
    65    29    33    1
    66    29    69    1
    67    29    70    1
    68    30    38    1
    69    30    71    1
    70    30    72    1
    71    31    33    1
    72    31    40    1
    73    31    45    1
    74    32    73    1
    75    32    74    1
    76    32    75    1
    77    33    76    1
    78    33    77    1
    79    34    78    1
    80    35    38    1
    81    35    79    1
    82    36    80    1
    83    36    81    1
    84    36    82    1
    85    37    83    1
    86    37    84    1
    87    38    85    1
    88    39    41    1
    89    39    86    1
    90    39    87    1
    91    40    42    1
    92    40    88    1
    93    40    89    1
    94    41    42    1
    95    41    46    1
    96    41    47    1
    97    42    90    1
    98    42    91    1
    99    43    92    1
   100    43    93    1
   101    43    94    1
   102    46    95    1
   103    46    96    1
   104    46    97    1
   105    47    98    1
   106    47    99    1
   107    47   100    1
   108    48    50    1
   109    48   104    1
   110    49    51    1
   111    49   105    1
   112    50    52    1
   113    50   106    1
   114    51    53    1
   115    51   107    1
   116    52    56    1
   117    52   108    1
   118    53    57    1
   119    53   109    1
   120    54    56    1
   121    54    58    1
   122    54   110    1
   123    55    57    1
   124    55    59    1
   125    55   111    1
   126    56   112    1
   127    57   113    1
   128    58   116    1
   129    58   117    1
   130    59   118    1
   131    59   119    1
