@<TRIPOS>MOLECULE
IMPHY016645
 39 38 0 0 0
SMALL
GASTEIGER

@<TRIPOS>ATOM
      1 O           8.0622   -0.5950    0.0000 O.3     1  UNL1       -0.3912
      2 O          10.6603    0.9050    0.0000 O.3     1  UNL1       -0.4648
      3 O           9.7942   -0.5950    0.0000 O.2     1  UNL1       -0.2508
      4 C           6.3301    0.4050    0.0000 C.3     1  UNL1       -0.0507
      5 C           5.4641    0.9050    0.0000 C.3     1  UNL1       -0.0530
      6 C           7.1962    0.9050    0.0000 C.3     1  UNL1       -0.0263
      7 C           4.5981    0.4050    0.0000 C.3     1  UNL1       -0.0531
      8 C           8.0622    0.4050    0.0000 C.3     1  UNL1        0.0653
      9 C           3.7320    0.9050    0.0000 C.3     1  UNL1       -0.0533
     10 C           8.9282    0.9050    0.0000 C.3     1  UNL1        0.0709
     11 C           2.8660    0.4050    0.0000 C.3     1  UNL1       -0.0559
     12 C           2.0000    0.9050    0.0000 C.3     1  UNL1       -0.0653
     13 C           9.7942    0.4050    0.0000 C.2     1  UNL1        0.3096
     14 C          11.5263    0.4050    0.0000 C.3     1  UNL1        0.0896
     15 C          12.3923    0.9050    0.0000 C.3     1  UNL1       -0.0306
     16 H           5.9316   -0.0699    0.0000 H       1  UNL1        0.0266
     17 H           6.7287   -0.0699    0.0000 H       1  UNL1        0.0266
     18 H           5.8626    1.3800    0.0000 H       1  UNL1        0.0265
     19 H           5.0656    1.3800    0.0000 H       1  UNL1        0.0265
     20 H           7.5947    1.3800    0.0000 H       1  UNL1        0.0290
     21 H           6.7976    1.3800    0.0000 H       1  UNL1        0.0290
     22 H           4.1996   -0.0699    0.0000 H       1  UNL1        0.0265
     23 H           4.9966   -0.0699    0.0000 H       1  UNL1        0.0265
     24 H           7.5252    0.0950    0.0000 H       1  UNL1        0.0598
     25 H           4.1306    1.3800    0.0000 H       1  UNL1        0.0265
     26 H           3.3335    1.3800    0.0000 H       1  UNL1        0.0265
     27 H           9.3267    1.3800    0.0000 H       1  UNL1        0.0403
     28 H           8.5297    1.3800    0.0000 H       1  UNL1        0.0403
     29 H           2.4675   -0.0699    0.0000 H       1  UNL1        0.0263
     30 H           3.2646   -0.0699    0.0000 H       1  UNL1        0.0263
     31 H           2.3100    1.4419    0.0000 H       1  UNL1        0.0230
     32 H           1.4631    1.2150    0.0000 H       1  UNL1        0.0230
     33 H           1.6900    0.3681    0.0000 H       1  UNL1        0.0230
     34 H           7.5252   -0.9050    0.0000 H       1  UNL1        0.2098
     35 H          11.1278   -0.0699    0.0000 H       1  UNL1        0.0694
     36 H          11.9248   -0.0699    0.0000 H       1  UNL1        0.0694
     37 H          12.7023    0.3681    0.0000 H       1  UNL1        0.0262
     38 H          12.9292    1.2150    0.0000 H       1  UNL1        0.0262
     39 H          12.0823    1.4419    0.0000 H       1  UNL1        0.0262
@<TRIPOS>BOND
     1     1     8    1
     2     1    34    1
     3     2    13    1
     4     2    14    1
     5     3    13    2
     6     4     5    1
     7     4     6    1
     8     4    16    1
     9     4    17    1
    10     5     7    1
    11     5    18    1
    12     5    19    1
    13     6     8    1
    14     6    20    1
    15     6    21    1
    16     7     9    1
    17     7    22    1
    18     7    23    1
    19     8    10    1
    20     8    24    1
    21     9    11    1
    22     9    25    1
    23     9    26    1
    24    10    13    1
    25    10    27    1
    26    10    28    1
    27    11    12    1
    28    11    29    1
    29    11    30    1
    30    12    31    1
    31    12    32    1
    32    12    33    1
    33    14    15    1
    34    14    35    1
    35    14    36    1
    36    15    37    1
    37    15    38    1
    38    15    39    1
