@<TRIPOS>MOLECULE
IMPHY004843
 67 71 0 0 0
SMALL
GASTEIGER

@<TRIPOS>ATOM
      1 O           8.2451    0.0311    0.0000 O.2     1  UNL1       -0.4539
      2 O          12.7370   -1.5106    0.0000 O.3     1  UNL1       -0.4778
      3 O          12.6413    0.5689    0.0000 O.3     1  UNL1       -0.5031
      4 O           9.1172   -1.4657    0.0000 O.3     1  UNL1       -0.5053
      5 O           8.2566    3.1004    0.0000 O.2     1  UNL1       -0.2866
      6 O           6.4194    3.1435    0.0000 O.3     1  UNL1       -0.5055
      7 O           4.6000    0.0200    0.0000 O.3     1  UNL1       -0.5062
      8 C          10.8711    1.5658    0.0000 C.3     1  UNL1        0.0132
      9 C          10.8711    0.5658    0.0000 C.ar    1  UNL1        0.0192
     10 C          10.0051    2.0658    0.0000 C.3     1  UNL1       -0.0098
     11 C          10.0051    0.0658    0.0000 C.ar    1  UNL1        0.0671
     12 C           9.1390    1.5658    0.0000 C.ar    1  UNL1        0.0439
     13 C           9.1390    0.5658    0.0000 C.ar    1  UNL1        0.1463
     14 C          11.7811    0.0589    0.0000 C.ar    1  UNL1        0.1638
     15 C          11.7371    2.0658    0.0000 C.2     1  UNL1       -0.0719
     16 C           9.9890   -0.9757    0.0000 C.ar    1  UNL1        0.1386
     17 C          11.7891   -0.9827    0.0000 C.ar    1  UNL1        0.1738
     18 C          10.8870   -1.5035    0.0000 C.ar    1  UNL1        0.0623
     19 C          12.7454   -2.5956    0.0000 C.3     1  UNL1        0.1237
     20 C           8.2451    2.1005    0.0000 C.ar    1  UNL1        0.1998
     21 C           7.3390    1.5866    0.0000 C.ar    1  UNL1        0.1060
     22 C           7.3390    0.5450    0.0000 C.ar    1  UNL1        0.1463
     23 C          10.8703   -2.5883    0.0000 C.2     1  UNL1       -0.0477
     24 C          11.8057   -3.1381    0.0000 C.2     1  UNL1       -0.0408
     25 C          11.7371    3.0658    0.0000 C.3     1  UNL1       -0.0435
     26 C          13.2487   -3.4596    0.0000 C.3     1  UNL1       -0.0215
     27 C          13.7454   -2.5917    0.0000 C.3     1  UNL1       -0.0215
     28 C           6.4079    2.1435    0.0000 C.ar    1  UNL1        0.1381
     29 C          12.6031    1.5658    0.0000 C.2     1  UNL1       -0.0991
     30 C           6.4079   -0.0119    0.0000 C.ar    1  UNL1        0.0234
     31 C           5.4641    1.6083    0.0000 C.ar    1  UNL1        0.0400
     32 C           5.4641    0.5233    0.0000 C.ar    1  UNL1        0.1273
     33 C           4.6000    2.1116    0.0000 C.3     1  UNL1       -0.0023
     34 C           3.7320    1.6150    0.0000 C.2     1  UNL1       -0.0807
     35 C           2.8680    2.1183    0.0000 C.2     1  UNL1       -0.0793
     36 C           2.0000    1.6216    0.0000 C.3     1  UNL1       -0.0440
     37 C           2.8718    3.1183    0.0000 C.3     1  UNL1       -0.0440
     38 H          11.4080    1.2558    0.0000 H       1  UNL1        0.0398
     39 H          10.4036    2.5407    0.0000 H       1  UNL1        0.0324
     40 H           9.6065    2.5407    0.0000 H       1  UNL1        0.0324
     41 H          10.3298   -2.8921    0.0000 H       1  UNL1        0.0624
     42 H          11.8033   -3.7580    0.0000 H       1  UNL1        0.0611
     43 H          12.3571    3.0658    0.0000 H       1  UNL1        0.0274
     44 H          11.7371    3.6858    0.0000 H       1  UNL1        0.0274
     45 H          11.1171    3.0658    0.0000 H       1  UNL1        0.0274
     46 H          13.7477   -3.2117    0.0000 H       1  UNL1        0.0271
     47 H          14.3653   -2.5893    0.0000 H       1  UNL1        0.0271
     48 H          12.7130   -3.7717    0.0000 H       1  UNL1        0.0271
     49 H          13.5608   -3.9954    0.0000 H       1  UNL1        0.0271
     50 H          13.7844   -3.1476    0.0000 H       1  UNL1        0.0271
     51 H          13.7430   -1.9717    0.0000 H       1  UNL1        0.0271
     52 H          12.6031    0.9458    0.0000 H       1  UNL1        0.0534
     53 H          13.1401    1.8758    0.0000 H       1  UNL1        0.0534
     54 H           6.4150   -0.6319    0.0000 H       1  UNL1        0.0691
     55 H          13.1818    0.2652    0.0000 H       1  UNL1        0.2923
     56 H           9.1101   -2.0856    0.0000 H       1  UNL1        0.2922
     57 H           5.0003    2.5850    0.0000 H       1  UNL1        0.0358
     58 H           4.2033    2.5881    0.0000 H       1  UNL1        0.0358
     59 H           5.8861    3.4596    0.0000 H       1  UNL1        0.2922
     60 H           3.7296    0.9950    0.0000 H       1  UNL1        0.0575
     61 H           4.6024   -0.6000    0.0000 H       1  UNL1        0.2921
     62 H           1.6921    2.1598    0.0000 H       1  UNL1        0.0274
     63 H           1.4619    1.3137    0.0000 H       1  UNL1        0.0274
     64 H           2.3079    1.0835    0.0000 H       1  UNL1        0.0274
     65 H           3.4918    3.1159    0.0000 H       1  UNL1        0.0274
     66 H           2.8742    3.7383    0.0000 H       1  UNL1        0.0274
     67 H           2.2518    3.1207    0.0000 H       1  UNL1        0.0274
@<TRIPOS>BOND
     1     1    13   ar
     2     1    22   ar
     3     2    17    1
     4     2    19    1
     5     3    14    1
     6     3    55    1
     7     4    16    1
     8     4    56    1
     9     5    20    2
    10     6    28    1
    11     6    59    1
    12     7    32    1
    13     7    61    1
    14     8     9    1
    15     8    10    1
    16     8    15    1
    17     8    38    1
    18     9    11   ar
    19     9    14   ar
    20    10    12    1
    21    10    39    1
    22    10    40    1
    23    11    13    1
    24    11    16   ar
    25    12    13   ar
    26    12    20   ar
    27    14    17   ar
    28    15    25    1
    29    15    29    2
    30    16    18   ar
    31    17    18   ar
    32    18    23    1
    33    19    24    1
    34    19    26    1
    35    19    27    1
    36    20    21   ar
    37    21    22   ar
    38    21    28   ar
    39    22    30   ar
    40    23    24    2
    41    23    41    1
    42    24    42    1
    43    25    43    1
    44    25    44    1
    45    25    45    1
    46    26    48    1
    47    26    49    1
    48    26    50    1
    49    27    46    1
    50    27    47    1
    51    27    51    1
    52    28    31   ar
    53    29    52    1
    54    29    53    1
    55    30    32   ar
    56    30    54    1
    57    31    32   ar
    58    31    33    1
    59    33    34    1
    60    33    57    1
    61    33    58    1
    62    34    35    2
    63    34    60    1
    64    35    36    1
    65    35    37    1
    66    36    62    1
    67    36    63    1
    68    36    64    1
    69    37    65    1
    70    37    66    1
    71    37    67    1
