@<TRIPOS>MOLECULE
IMPHY007554
 83 86 0 0 0
SMALL
GASTEIGER

@<TRIPOS>ATOM
      1 O           5.2710   -2.9220    0.0000 O.3     1  UNL1       -0.3843
      2 O           6.1847   -3.4428    0.0000 O.3     1  UNL1       -0.4586
      3 O           2.5357   -2.4259    0.0000 O.3     1  UNL1       -0.3917
      4 O           7.9167   -3.4361    0.0000 O.2     1  UNL1       -0.2512
      5 C           7.0628   -0.8736    0.0000 C.3     1  UNL1       -0.0308
      6 C           7.9288   -0.3736    0.0000 C.3     1  UNL1       -0.0321
      7 C           7.9288    0.6264    0.0000 C.3     1  UNL1       -0.0259
      8 C           6.1968   -0.3736    0.0000 C.3     1  UNL1       -0.0297
      9 C           5.2868   -0.8804    0.0000 C.3     1  UNL1        0.0035
     10 C           5.2787   -1.9220    0.0000 C.3     1  UNL1        0.1107
     11 C           8.8750    0.9312    0.0000 C.3     1  UNL1       -0.0328
     12 C           7.0628    1.1264    0.0000 C.3     1  UNL1       -0.0468
     13 C           6.1968    0.6264    0.0000 C.3     1  UNL1       -0.0489
     14 C           7.0789   -1.9151    0.0000 C.3     1  UNL1       -0.0095
     15 C           8.8750   -0.6783    0.0000 C.3     1  UNL1       -0.0492
     16 C           6.1808   -2.4428    0.0000 C.3     1  UNL1        0.1324
     17 C           9.4586    0.1264    0.0000 C.3     1  UNL1       -0.0492
     18 C           4.3599   -0.3163    0.0000 C.3     1  UNL1       -0.0423
     19 C           4.3433   -2.4717    0.0000 C.3     1  UNL1        0.0061
     20 C           7.9288    1.6264    0.0000 C.3     1  UNL1       -0.0590
     21 C           9.1857    1.8817    0.0000 C.3     1  UNL1       -0.0405
     22 C           5.2945    0.1196    0.0000 C.3     1  UNL1       -0.0566
     23 C           3.4120   -0.8443    0.0000 C.3     1  UNL1       -0.0262
     24 C           3.4037   -1.9292    0.0000 C.3     1  UNL1        0.0580
     25 C          10.1642    2.0879    0.0000 C.3     1  UNL1       -0.0502
     26 C           8.5179    2.6260    0.0000 C.3     1  UNL1       -0.0621
     27 C          10.4749    3.0384    0.0000 C.3     1  UNL1       -0.0526
     28 C           7.0526   -3.9395    0.0000 C.2     1  UNL1        0.3043
     29 C          11.4534    3.2446    0.0000 C.3     1  UNL1       -0.0507
     30 C           7.0565   -4.9395    0.0000 C.3     1  UNL1        0.0332
     31 C          11.7640    4.1952    0.0000 C.3     1  UNL1       -0.0467
     32 C          12.7425    4.4014    0.0000 C.3     1  UNL1       -0.0627
     33 C          11.0962    4.9395    0.0000 C.3     1  UNL1       -0.0627
     34 H           7.8022   -1.2929    0.0000 H       1  UNL1        0.0308
     35 H           8.0188   -1.2188    0.0000 H       1  UNL1        0.0309
     36 H           6.9329    0.0514    0.0000 H       1  UNL1        0.0310
     37 H           9.7148    1.0630    0.0000 H       1  UNL1        0.0309
     38 H           7.4613    1.6014    0.0000 H       1  UNL1        0.0271
     39 H           6.6643    1.6014    0.0000 H       1  UNL1        0.0271
     40 H           5.9847    1.2090    0.0000 H       1  UNL1        0.0268
     41 H           5.5862    0.5188    0.0000 H       1  UNL1        0.0268
     42 H           7.2969   -2.4955    0.0000 H       1  UNL1        0.0305
     43 H           7.6880   -1.7996    0.0000 H       1  UNL1        0.0305
     44 H           8.6240   -1.2452    0.0000 H       1  UNL1        0.0268
     45 H           9.4124   -0.9875    0.0000 H       1  UNL1        0.0268
     46 H           6.7195   -2.7497    0.0000 H       1  UNL1        0.0763
     47 H           9.9195   -0.2883    0.0000 H       1  UNL1        0.0268
     48 H           9.9195    0.5412    0.0000 H       1  UNL1        0.0268
     49 H           4.7681    0.1503    0.0000 H       1  UNL1        0.0272
     50 H           3.9700    0.1657    0.0000 H       1  UNL1        0.0272
     51 H           3.9460   -2.9477    0.0000 H       1  UNL1        0.0319
     52 H           4.7443   -2.9446    0.0000 H       1  UNL1        0.0319
     53 H           8.5488    1.6264    0.0000 H       1  UNL1        0.0235
     54 H           7.9288    2.2464    0.0000 H       1  UNL1        0.0235
     55 H           7.3088    1.6264    0.0000 H       1  UNL1        0.0235
     56 H           9.3783    2.4710    0.0000 H       1  UNL1        0.0301
     57 H           5.9145    0.1148    0.0000 H       1  UNL1        0.0236
     58 H           5.2993    0.7395    0.0000 H       1  UNL1        0.0236
     59 H           4.6745    0.1243    0.0000 H       1  UNL1        0.0236
     60 H           3.2075   -0.2590    0.0000 H       1  UNL1        0.0290
     61 H           2.8004   -0.9457    0.0000 H       1  UNL1        0.0290
     62 H           3.4025   -2.5492    0.0000 H       1  UNL1        0.0594
     63 H           4.7317   -3.2278    0.0000 H       1  UNL1        0.2103
     64 H          10.1848    1.4682    0.0000 H       1  UNL1        0.0268
     65 H          10.7780    2.0006    0.0000 H       1  UNL1        0.0268
     66 H           8.9793    3.0400    0.0000 H       1  UNL1        0.0233
     67 H           8.1038    3.0875    0.0000 H       1  UNL1        0.0233
     68 H           8.0564    2.2119    0.0000 H       1  UNL1        0.0233
     69 H          10.4543    3.6581    0.0000 H       1  UNL1        0.0265
     70 H           9.8611    3.1258    0.0000 H       1  UNL1        0.0265
     71 H           2.0000   -2.1138    0.0000 H       1  UNL1        0.2098
     72 H          11.4739    2.6250    0.0000 H       1  UNL1        0.0268
     73 H          12.0672    3.1573    0.0000 H       1  UNL1        0.0268
     74 H           6.4365   -4.9419    0.0000 H       1  UNL1        0.0342
     75 H           7.0589   -5.5595    0.0000 H       1  UNL1        0.0342
     76 H           7.6765   -4.9371    0.0000 H       1  UNL1        0.0342
     77 H          12.1781    3.7337    0.0000 H       1  UNL1        0.0295
     78 H          12.8704    3.7947    0.0000 H       1  UNL1        0.0232
     79 H          13.3492    4.5292    0.0000 H       1  UNL1        0.0232
     80 H          12.6147    5.0081    0.0000 H       1  UNL1        0.0232
     81 H          11.5577    5.3535    0.0000 H       1  UNL1        0.0232
     82 H          10.6821    5.4009    0.0000 H       1  UNL1        0.0232
     83 H          10.6347    4.5254    0.0000 H       1  UNL1        0.0232
@<TRIPOS>BOND
     1    10     1    1
     2     1    63    1
     3    16     2    1
     4     2    28    1
     5    24     3    1
     6     3    71    1
     7     4    28    2
     8     5     6    1
     9     5     8    1
    10     5    14    1
    11     5    34    1
    12     6     7    1
    13     6    15    1
    14     6    35    1
    15     7    11    1
    16     7    12    1
    17     7    20    1
    18     8     9    1
    19     8    13    1
    20     8    36    1
    21     9    10    1
    22     9    18    1
    23     9    22    1
    24    10    16    1
    25    10    19    1
    26    11    17    1
    27    11    21    1
    28    11    37    1
    29    12    13    1
    30    12    38    1
    31    12    39    1
    32    13    40    1
    33    13    41    1
    34    14    16    1
    35    14    42    1
    36    14    43    1
    37    15    17    1
    38    15    44    1
    39    15    45    1
    40    16    46    1
    41    17    47    1
    42    17    48    1
    43    18    23    1
    44    18    49    1
    45    18    50    1
    46    19    24    1
    47    19    51    1
    48    19    52    1
    49    20    53    1
    50    20    54    1
    51    20    55    1
    52    21    25    1
    53    21    26    1
    54    21    56    1
    55    22    57    1
    56    22    58    1
    57    22    59    1
    58    23    24    1
    59    23    60    1
    60    23    61    1
    61    24    62    1
    62    25    27    1
    63    25    64    1
    64    25    65    1
    65    26    66    1
    66    26    67    1
    67    26    68    1
    68    27    29    1
    69    27    69    1
    70    27    70    1
    71    28    30    1
    72    29    31    1
    73    29    72    1
    74    29    73    1
    75    30    74    1
    76    30    75    1
    77    30    76    1
    78    31    32    1
    79    31    33    1
    80    31    77    1
    81    32    78    1
    82    32    79    1
    83    32    80    1
    84    33    81    1
    85    33    82    1
    86    33    83    1
