@<TRIPOS>MOLECULE
IMPHY007593
 45 47 0 0 0
SMALL
GASTEIGER

@<TRIPOS>ATOM
      1 O           2.8660    0.7722    0.0000 O.3     1  UNL1       -0.4914
      2 O           2.8660    2.7722    0.0000 O.3     1  UNL1       -0.4914
      3 O           5.4747   -0.7524    0.0000 O.2     1  UNL1       -0.2850
      4 O           8.0437   -3.2822    0.0000 O.3     1  UNL1       -0.4914
      5 O           9.7872   -2.3023    0.0000 O.3     1  UNL1       -0.4915
      6 N           7.2641    1.2514    0.0000 N.ar    1  UNL1       -0.2511
      7 C           5.4641    1.2722    0.0000 C.ar    1  UNL1        0.0150
      8 C           5.4641    2.2722    0.0000 C.ar    1  UNL1       -0.0106
      9 C           6.3580    0.7375    0.0000 C.ar    1  UNL1        0.1187
     10 C           4.5981    0.7722    0.0000 C.ar    1  UNL1       -0.0064
     11 C           4.5981    2.7722    0.0000 C.ar    1  UNL1       -0.0085
     12 C           3.7320    1.2722    0.0000 C.ar    1  UNL1        0.1621
     13 C           6.3465   -0.2624    0.0000 C.2     1  UNL1        0.2119
     14 C           3.7320    2.2722    0.0000 C.ar    1  UNL1        0.1621
     15 C           7.2067   -0.7724    0.0000 C.ar    1  UNL1        0.0275
     16 C           6.3580    2.8068    0.0000 C.ar    1  UNL1       -0.0357
     17 C           7.2641    2.2930    0.0000 C.ar    1  UNL1        0.0290
     18 C           7.1951   -1.7723    0.0000 C.ar    1  UNL1       -0.0054
     19 C           8.0784   -0.2824    0.0000 C.ar    1  UNL1       -0.0472
     20 C           8.0553   -2.2823    0.0000 C.ar    1  UNL1        0.1622
     21 C           8.9270   -1.7924    0.0000 C.ar    1  UNL1        0.1615
     22 C           8.9386   -0.7924    0.0000 C.ar    1  UNL1       -0.0156
     23 C           2.0000    1.2722    0.0000 C.3     1  UNL1        0.0790
     24 C           2.8660    3.7722    0.0000 C.3     1  UNL1        0.0790
     25 C           7.1720   -3.7722    0.0000 C.3     1  UNL1        0.0790
     26 C          10.6590   -1.8124    0.0000 C.3     1  UNL1        0.0790
     27 H           4.5981    0.1522    0.0000 H       1  UNL1        0.0662
     28 H           4.5981    3.3922    0.0000 H       1  UNL1        0.0661
     29 H           6.3509    3.4268    0.0000 H       1  UNL1        0.0639
     30 H           7.7998    2.6051    0.0000 H       1  UNL1        0.0830
     31 H           6.6546   -2.0761    0.0000 H       1  UNL1        0.0662
     32 H           8.0856    0.3375    0.0000 H       1  UNL1        0.0626
     33 H           9.4791   -0.4886    0.0000 H       1  UNL1        0.0655
     34 H           2.3100    1.8091    0.0000 H       1  UNL1        0.0660
     35 H           1.4631    1.5822    0.0000 H       1  UNL1        0.0660
     36 H           1.6900    0.7353    0.0000 H       1  UNL1        0.0660
     37 H           3.4860    3.7722    0.0000 H       1  UNL1        0.0660
     38 H           2.8660    4.3922    0.0000 H       1  UNL1        0.0660
     39 H           2.2460    3.7722    0.0000 H       1  UNL1        0.0660
     40 H           6.8682   -3.2317    0.0000 H       1  UNL1        0.0660
     41 H           6.6315   -4.0760    0.0000 H       1  UNL1        0.0660
     42 H           7.4758   -4.3127    0.0000 H       1  UNL1        0.0660
     43 H          10.9627   -2.3529    0.0000 H       1  UNL1        0.0660
     44 H          11.1995   -1.5086    0.0000 H       1  UNL1        0.0660
     45 H          10.3552   -1.2719    0.0000 H       1  UNL1        0.0660
@<TRIPOS>BOND
     1     1    12    1
     2     1    23    1
     3     2    14    1
     4     2    24    1
     5     3    13    2
     6     4    20    1
     7     4    25    1
     8     5    21    1
     9     5    26    1
    10     6     9   ar
    11     6    17   ar
    12     7     8   ar
    13     7     9   ar
    14     7    10   ar
    15     8    11   ar
    16     8    16   ar
    17     9    13    1
    18    10    12   ar
    19    10    27    1
    20    11    14   ar
    21    11    28    1
    22    12    14   ar
    23    13    15    1
    24    15    18   ar
    25    15    19   ar
    26    16    17   ar
    27    16    29    1
    28    17    30    1
    29    18    20   ar
    30    18    31    1
    31    19    22   ar
    32    19    32    1
    33    20    21   ar
    34    21    22   ar
    35    22    33    1
    36    23    34    1
    37    23    35    1
    38    23    36    1
    39    24    37    1
    40    24    38    1
    41    24    39    1
    42    25    40    1
    43    25    41    1
    44    25    42    1
    45    26    43    1
    46    26    44    1
    47    26    45    1
