@<TRIPOS>MOLECULE
IMPHY010207
 57 63 0 0 0
SMALL
GASTEIGER

@<TRIPOS>ATOM
      1 O          13.6640   -5.7809    0.0000 O.3     1  UNL1       -0.3257
      2 C          15.0093   -5.7809    0.0000 C.3     1  UNL1        0.1802
      3 C          15.6820   -4.6247    0.0000 C.3     1  UNL1        0.2111
      4 C          15.0093   -3.4685    0.0000 C.3     1  UNL1        0.1858
      5 C          13.6640   -3.4685    0.0000 C.3     1  UNL1        0.2374
      6 C          13.0123   -4.6247    0.0000 C.3     1  UNL1        0.2693
      7 O          17.0064   -4.6247    0.0000 O.3     1  UNL1       -0.2177
      8 O          15.6820   -2.3124    0.0000 O.3     1  UNL1       -0.3255
      9 C          17.0064   -2.3124    0.0000 C.3     1  UNL1        0.2695
     10 O          17.6791   -3.4685    0.0000 O.3     1  UNL1       -0.3256
     11 C          19.0034   -3.4685    0.0000 C.3     1  UNL1        0.1835
     12 C          19.6761   -2.3124    0.0000 C.3     1  UNL1        0.2144
     13 C          19.0034   -1.1562    0.0000 C.3     1  UNL1        0.2198
     14 C          17.6791   -1.1562    0.0000 C.3     1  UNL1        0.2406
     15 O          13.0123   -2.3124    0.0000 O.3     1  UNL1       -0.2150
     16 O          11.6669   -4.6247    0.0000 O.3     1  UNL1       -0.3285
     17 C          10.4266   -4.0571    0.0000 C.3     1  UNL1        0.1479
     18 C           9.2705   -4.7298    0.0000 C.3     1  UNL1        0.0274
     19 C           9.2705   -6.0542    0.0000 C.3     1  UNL1        0.0027
     20 C           8.1143   -6.7269    0.0000 C.3     1  UNL1        0.0038
     21 C           6.9581   -6.0542    0.0000 C.3     1  UNL1        0.0143
     22 C           5.8019   -6.7269    0.0000 C.3     1  UNL1        0.0001
     23 C           4.6457   -6.0542    0.0000 C.3     1  UNL1       -0.0150
     24 C           3.4896   -6.7269    0.0000 C.3     1  UNL1       -0.0062
     25 C           3.4896   -8.0722    0.0000 C.3     1  UNL1       -0.0146
     26 C           2.3124   -8.7239    0.0000 C.3     1  UNL1        0.0554
     27 C           1.1562   -8.0722    0.0000 C.3     1  UNL1        0.1540
     28 C           1.1562   -6.7269    0.0000 C.3     1  UNL1        0.0329
     29 C           2.3124   -6.0542    0.0000 C.3     1  UNL1        0.0020
     30 C          10.4266   -2.7118    0.0000 C.3     1  UNL1        0.1788
     31 C           9.2705   -2.0391    0.0000 C.3     1  UNL1        0.0306
     32 C           8.1143   -2.7118    0.0000 C.3     1  UNL1        0.0024
     33 C           8.1143   -4.0571    0.0000 C.3     1  UNL1       -0.0017
     34 C           6.9581   -4.7298    0.0000 C.2     1  UNL1       -0.0533
     35 C           5.8019   -4.0571    0.0000 C.2     1  UNL1       -0.0353
     36 C           4.6457   -4.7298    0.0000 C.3     1  UNL1        0.0214
     37 C           5.8019   -8.0722    0.0000 C.3     1  UNL1       -0.0003
     38 C           4.6457   -8.7239    0.0000 C.3     1  UNL1       -0.0038
     39 C          19.6761   -4.6247    0.0000 C.3     1  UNL1        0.2142
     40 O          19.0034   -5.7809    0.0000 O.3     1  UNL1       -0.2176
     41 O          21.0215   -2.3124    0.0000 O.3     1  UNL1       -0.2176
     42 O          19.6761    0.0000    0.0000 O.3     1  UNL1       -0.2174
     43 O          17.0064    0.0000    0.0000 O.3     1  UNL1       -0.2149
     44 C          10.4266   -5.4025    0.0000 C.3     1  UNL1        0.0025
     45 C           6.9581   -7.3996    0.0000 C.3     1  UNL1        0.0040
     46 C           5.8019   -5.4656    0.0000 C.3     1  UNL1        0.0000
     47 C           3.4896   -5.4025    0.0000 C.3     1  UNL1       -0.0006
     48 C           2.9850   -9.8801    0.0000 C.3     1  UNL1        0.1841
     49 O           2.3124  -11.0573    0.0000 O.3     1  UNL1       -0.2204
     50 C           1.6397   -9.8801    0.0000 C.3     1  UNL1        0.0048
     51 O           0.0000   -8.7239    0.0000 O.3     1  UNL1       -0.2231
     52 O          11.5828   -2.0391    0.0000 O.3     1  UNL1       -0.2205
     53 C           9.9432   -0.8829    0.0000 C.3     1  UNL1        0.0026
     54 C           8.5978   -0.8829    0.0000 C.3     1  UNL1        0.0026
     55 H           6.9581   -3.3634    0.0000 H       1  UNL1        0.0359
     56 H           3.4896   -9.1443    0.0000 H       1  UNL1        0.0320
     57 H           4.6457   -7.2734    0.0000 H       1  UNL1        0.0322
@<TRIPOS>BOND
     1     1     6    1
     2     1     2    1
     3     2     3    1
     4     3     4    1
     5     3     7    1
     6     4     5    1
     7     4     8    1
     8     5     6    1
     9     5    15    1
    10     6    16    1
    11     9     8    1
    12     9    14    1
    13     9    10    1
    14    10    11    1
    15    11    12    1
    16    11    39    1
    17    12    13    1
    18    12    41    1
    19    13    14    1
    20    13    42    1
    21    14    43    1
    22    17    16    1
    23    17    18    1
    24    17    30    1
    25    18    19    1
    26    18    33    1
    27    18    44    1
    28    19    20    1
    29    20    21    1
    30    21    22    1
    31    21    34    1
    32    21    45    1
    33    22    23    1
    34    22    37    1
    35    22    46    1
    36    23    24    1
    37    23    36    1
    38    23    57    1
    39    24    29    1
    40    24    25    1
    41    24    47    1
    42    25    26    1
    43    25    38    1
    44    25    56    1
    45    26    27    1
    46    26    50    1
    47    26    48    1
    48    27    28    1
    49    27    51    1
    50    28    29    1
    51    30    31    1
    52    30    52    1
    53    31    32    1
    54    31    53    1
    55    31    54    1
    56    32    33    1
    57    33    34    1
    58    33    55    1
    59    34    35    2
    60    35    36    1
    61    37    38    1
    62    39    40    1
    63    48    49    1
