@<TRIPOS>MOLECULE
IMPHY009898
 69 71 0 0 0
SMALL
GASTEIGER

@<TRIPOS>ATOM
      1 O           5.1478   -0.8099    0.0000 O.3     1  UNL1       -0.4573
      2 O           4.2818    1.6901    0.0000 O.3     1  UNL1       -0.4581
      3 O           7.8458   -1.0688    0.0000 O.3     1  UNL1       -0.3730
      4 O           8.2941   -2.2241    0.0000 O.3     1  UNL1       -0.3853
      5 O           7.7459    1.6901    0.0000 O.3     1  UNL1       -0.4563
      6 O           6.0139   -2.3099    0.0000 O.2     1  UNL1       -0.2473
      7 O           6.0139    0.6901    0.0000 O.3     1  UNL1       -0.3777
      8 O           6.7210    0.9830    0.0000 O.3     1  UNL1       -0.3745
      9 O           5.1478    3.1901    0.0000 O.2     1  UNL1       -0.2474
     10 O           8.6119    0.1901    0.0000 O.2     1  UNL1       -0.2478
     11 N           2.6788   -1.4770    0.0000 N.3     1  UNL1       -0.2886
     12 C           3.4158   -0.8099    0.0000 C.3     1  UNL1        0.0723
     13 C           4.2818   -1.3099    0.0000 C.3     1  UNL1        0.1236
     14 C           4.0726   -2.2818    0.0000 C.3     1  UNL1       -0.0010
     15 C           3.0839   -2.3848    0.0000 C.3     1  UNL1        0.0033
     16 C           3.4158    0.1901    0.0000 C.2     1  UNL1       -0.0148
     17 C           2.0000   -0.7316    0.0000 C.3     1  UNL1        0.0182
     18 C           2.4076    0.1904    0.0000 C.2     1  UNL1       -0.0660
     19 C           6.8799   -0.8099    0.0000 C.3     1  UNL1        0.2272
     20 C           4.2818    0.6901    0.0000 C.3     1  UNL1        0.1153
     21 C           7.5870   -1.5170    0.0000 C.3     1  UNL1        0.1051
     22 C           6.0139   -1.3099    0.0000 C.2     1  UNL1        0.3456
     23 C           6.8799    0.1901    0.0000 C.3     1  UNL1        0.1937
     24 C           6.0139    1.6901    0.0000 C.3     1  UNL1        0.2012
     25 C           6.8799   -2.2241    0.0000 C.3     1  UNL1       -0.0237
     26 C           6.8799    2.1901    0.0000 C.3     1  UNL1        0.1396
     27 C           5.0480    1.4312    0.0000 C.3     1  UNL1       -0.0037
     28 C           8.4062   -0.9435    0.0000 C.3     1  UNL1       -0.0327
     29 C           5.1478    2.1901    0.0000 C.2     1  UNL1        0.3435
     30 C           7.7459    0.6901    0.0000 C.2     1  UNL1        0.3400
     31 C           7.1387   -3.1901    0.0000 C.3     1  UNL1       -0.0626
     32 C           6.8799    3.1901    0.0000 C.3     1  UNL1       -0.0244
     33 C           4.4744    2.2504    0.0000 C.3     1  UNL1       -0.0594
     34 C           4.7891    0.4653    0.0000 C.3     1  UNL1       -0.0594
     35 H           3.4158   -1.6599    0.0000 H       1  UNL1        0.0547
     36 H           4.9688   -1.8104    0.0000 H       1  UNL1        0.0753
     37 H           4.0717   -2.9018    0.0000 H       1  UNL1        0.0314
     38 H           4.6891   -2.3478    0.0000 H       1  UNL1        0.0314
     39 H           2.4943   -2.5766    0.0000 H       1  UNL1        0.0428
     40 H           3.2126   -2.9913    0.0000 H       1  UNL1        0.0428
     41 H           1.4730   -0.4050    0.0000 H       1  UNL1        0.0470
     42 H           1.6037   -1.2084    0.0000 H       1  UNL1        0.0470
     43 H           2.0694    0.7100    0.0000 H       1  UNL1        0.0586
     44 H           4.4939    0.1075    0.0000 H       1  UNL1        0.0746
     45 H           4.8924    0.7977    0.0000 H       1  UNL1        0.0746
     46 H           6.8799    1.0401    0.0000 H       1  UNL1        0.0747
     47 H           6.5243   -1.7163    0.0000 H       1  UNL1        0.0291
     48 H           6.3180   -2.4862    0.0000 H       1  UNL1        0.0291
     49 H           7.6160    2.6151    0.0000 H       1  UNL1        0.0766
     50 H           4.4374    1.3235    0.0000 H       1  UNL1        0.0330
     51 H           8.7618   -1.4513    0.0000 H       1  UNL1        0.0258
     52 H           8.9140   -0.5878    0.0000 H       1  UNL1        0.0258
     53 H           8.0505   -0.4356    0.0000 H       1  UNL1        0.0258
     54 H           8.2842   -1.5072    0.0000 H       1  UNL1        0.2111
     55 H           8.1336   -2.8230    0.0000 H       1  UNL1        0.2103
     56 H           6.5398   -3.3505    0.0000 H       1  UNL1        0.0231
     57 H           7.2992   -3.7889    0.0000 H       1  UNL1        0.0231
     58 H           7.7376   -3.0296    0.0000 H       1  UNL1        0.0231
     59 H           7.4999    3.1901    0.0000 H       1  UNL1        0.0266
     60 H           6.8799    3.8101    0.0000 H       1  UNL1        0.0266
     61 H           6.2599    3.1901    0.0000 H       1  UNL1        0.0266
     62 H           4.9823    2.6060    0.0000 H       1  UNL1        0.0233
     63 H           4.1188    2.7583    0.0000 H       1  UNL1        0.0233
     64 H           3.9665    1.8948    0.0000 H       1  UNL1        0.0233
     65 H           4.1902    0.6258    0.0000 H       1  UNL1        0.0233
     66 H           4.6286   -0.1335    0.0000 H       1  UNL1        0.0233
     67 H           5.3880    0.3048    0.0000 H       1  UNL1        0.0233
     68 H           5.4769    0.3801    0.0000 H       1  UNL1        0.2106
     69 H           7.1594    1.4214    0.0000 H       1  UNL1        0.2110
@<TRIPOS>BOND
     1     1    13    1
     2     1    22    1
     3     2    20    1
     4     2    29    1
     5     3    19    1
     6     3    54    1
     7     4    21    1
     8     4    55    1
     9     5    26    1
    10     5    30    1
    11     6    22    2
    12     7    23    1
    13     7    68    1
    14     8    24    1
    15     8    69    1
    16     9    29    2
    17    10    30    2
    18    11    12    1
    19    11    15    1
    20    11    17    1
    21    12    13    1
    22    12    16    1
    23    12    35    1
    24    13    14    1
    25    13    36    1
    26    14    15    1
    27    14    37    1
    28    14    38    1
    29    15    39    1
    30    15    40    1
    31    16    18    2
    32    16    20    1
    33    17    18    1
    34    17    41    1
    35    17    42    1
    36    18    43    1
    37    19    21    1
    38    19    22    1
    39    19    23    1
    40    20    44    1
    41    20    45    1
    42    21    25    1
    43    21    28    1
    44    23    30    1
    45    23    46    1
    46    24    26    1
    47    24    27    1
    48    24    29    1
    49    25    31    1
    50    25    47    1
    51    25    48    1
    52    26    32    1
    53    26    49    1
    54    27    33    1
    55    27    34    1
    56    27    50    1
    57    28    51    1
    58    28    52    1
    59    28    53    1
    60    31    56    1
    61    31    57    1
    62    31    58    1
    63    32    59    1
    64    32    60    1
    65    32    61    1
    66    33    62    1
    67    33    63    1
    68    33    64    1
    69    34    65    1
    70    34    66    1
    71    34    67    1
