@<TRIPOS>MOLECULE
IMPHY007476
 53 54 0 0 0
SMALL
GASTEIGER

@<TRIPOS>ATOM
      1 O           4.5752   -2.3674    0.0000 O.3     1  UNL1       -0.4532
      2 O           6.0981    0.6044    0.0000 O.3     1  UNL1       -0.4532
      3 O           3.8660   -0.2616    0.0000 O.3     1  UNL1       -0.4529
      4 O           6.0640   -3.3365    0.0000 O.2     1  UNL1       -0.2453
      5 O           5.3552    1.5705    0.0000 O.3     1  UNL1       -0.3907
      6 O           4.3660    3.3365    0.0000 O.2     1  UNL1       -0.2959
      7 O           7.4249   -0.5089    0.0000 O.2     1  UNL1       -0.2453
      8 O           2.3659   -1.1274    0.0000 O.2     1  UNL1       -0.2511
      9 C           5.2320   -0.8956    0.0000 C.3     1  UNL1        0.0719
     10 C           5.2320    0.1044    0.0000 C.3     1  UNL1        0.1549
     11 C           4.3660   -1.3956    0.0000 C.3     1  UNL1        0.1324
     12 C           4.3660    0.6044    0.0000 C.3     1  UNL1        0.1680
     13 C           5.9691   -1.5627    0.0000 C.2     1  UNL1        0.0401
     14 C           3.5000   -0.8956    0.0000 C.2     1  UNL1       -0.0418
     15 C           5.5640   -2.4704    0.0000 C.2     1  UNL1        0.3357
     16 C           4.3660    1.6044    0.0000 C.2     1  UNL1        0.0316
     17 C           3.5000    0.1044    0.0000 C.2     1  UNL1       -0.0447
     18 C           2.6340    0.6044    0.0000 C.3     1  UNL1       -0.0260
     19 C           2.6340    1.6044    0.0000 C.3     1  UNL1       -0.0302
     20 C           3.5000    2.1044    0.0000 C.2     1  UNL1       -0.0739
     21 C           6.9591   -1.7036    0.0000 C.2     1  UNL1       -0.0882
     22 C           4.7124    0.8044    0.0000 C.3     1  UNL1        0.0654
     23 C           4.8660    2.4704    0.0000 C.2     1  UNL1        0.1496
     24 C           7.0829    0.4308    0.0000 C.2     1  UNL1        0.3347
     25 C           2.8659   -0.2615    0.0000 C.2     1  UNL1        0.3046
     26 C           7.7257    1.1968    0.0000 C.2     1  UNL1        0.0265
     27 C           2.0000    0.2386    0.0000 C.3     1  UNL1        0.0333
     28 C           8.7105    1.0232    0.0000 C.3     1  UNL1       -0.0335
     29 C           7.3836    2.1365    0.0000 C.2     1  UNL1       -0.0890
     30 H           6.0090   -0.5509    0.0000 H       1  UNL1        0.0428
     31 H           5.2320    0.7244    0.0000 H       1  UNL1        0.0783
     32 H           3.6790   -1.8961    0.0000 H       1  UNL1        0.0787
     33 H           3.7672    0.7649    0.0000 H       1  UNL1        0.0824
     34 H           2.9631   -1.2056    0.0000 H       1  UNL1        0.0609
     35 H           2.0234    0.7121    0.0000 H       1  UNL1        0.0314
     36 H           2.4219    0.0218    0.0000 H       1  UNL1        0.0314
     37 H           2.4219    2.1870    0.0000 H       1  UNL1        0.0311
     38 H           2.0234    1.4968    0.0000 H       1  UNL1        0.0311
     39 H           3.5000    2.7244    0.0000 H       1  UNL1        0.0577
     40 H           7.1904   -2.2788    0.0000 H       1  UNL1        0.0540
     41 H           7.3416   -1.2156    0.0000 H       1  UNL1        0.0540
     42 H           4.7844    0.1886    0.0000 H       1  UNL1        0.0604
     43 H           4.3139    1.2794    0.0000 H       1  UNL1        0.0604
     44 H           5.4860    2.4704    0.0000 H       1  UNL1        0.1079
     45 H           5.8302    1.1719    0.0000 H       1  UNL1        0.2098
     46 H           2.3101    0.7755    0.0000 H       1  UNL1        0.0342
     47 H           1.4631    0.5487    0.0000 H       1  UNL1        0.0342
     48 H           1.6899   -0.2983    0.0000 H       1  UNL1        0.0342
     49 H           8.6028    0.4126    0.0000 H       1  UNL1        0.0280
     50 H           9.3211    0.9155    0.0000 H       1  UNL1        0.0280
     51 H           8.8181    1.6338    0.0000 H       1  UNL1        0.0280
     52 H           7.7822    2.6115    0.0000 H       1  UNL1        0.0540
     53 H           6.7731    2.2442    0.0000 H       1  UNL1        0.0540
@<TRIPOS>BOND
     1     1    11    1
     2     1    15    1
     3    10     2    1
     4     2    24    1
     5    12     3    1
     6     3    25    1
     7     4    15    2
     8     5    22    1
     9     5    45    1
    10     6    23    2
    11     7    24    2
    12     8    25    2
    13     9    10    1
    14     9    11    1
    15     9    13    1
    16     9    30    1
    17    10    12    1
    18    10    31    1
    19    11    14    1
    20    11    32    1
    21    12    16    1
    22    12    33    1
    23    13    15    1
    24    13    21    2
    25    14    17    2
    26    14    34    1
    27    16    20    2
    28    16    23    1
    29    17    18    1
    30    17    22    1
    31    18    19    1
    32    18    35    1
    33    18    36    1
    34    19    20    1
    35    19    37    1
    36    19    38    1
    37    20    39    1
    38    21    40    1
    39    21    41    1
    40    22    42    1
    41    22    43    1
    42    23    44    1
    43    24    26    1
    44    25    27    1
    45    26    28    1
    46    26    29    2
    47    27    46    1
    48    27    47    1
    49    27    48    1
    50    28    49    1
    51    28    50    1
    52    28    51    1
    53    29    52    1
    54    29    53    1
