@<TRIPOS>MOLECULE
IMPHY008368
 80 83 0 0 0
SMALL
GASTEIGER

@<TRIPOS>ATOM
      1 O           9.4099   -1.9150    0.0000 O.3     1  UNL1       -0.3430
      2 O           8.9099    2.6238    0.0000 O.3     1  UNL1       -0.3911
      3 O           5.2597    1.3221    0.0000 O.3     1  UNL1       -0.4574
      4 O          10.6461   -1.3386    0.0000 O.3     1  UNL1       -0.3664
      5 O           6.7171   -0.9895    0.0000 O.3     1  UNL1       -0.3944
      6 O           9.5439    1.9899    0.0000 O.3     1  UNL1       -0.3943
      7 O           7.1700    3.3904    0.0000 O.3     1  UNL1       -0.3943
      8 O          11.1028    1.2372    0.0000 O.3     1  UNL1       -0.3947
      9 O           5.5621    3.8699    0.0000 O.3     1  UNL1       -0.4806
     10 O           4.9509    2.2493    0.0000 O.2     1  UNL1       -0.2510
     11 O           7.3221   -4.2629    0.0000 O.2     1  UNL1       -0.4707
     12 O           4.9524   -0.3824    0.0000 O.2     1  UNL1       -0.2453
     13 C           8.0439    0.1238    0.0000 C.3     1  UNL1        0.0154
     14 C           8.0439    1.1238    0.0000 C.3     1  UNL1        0.0397
     15 C           8.9099   -0.3762    0.0000 C.3     1  UNL1        0.0375
     16 C           7.1499    1.6585    0.0000 C.3     1  UNL1        0.0514
     17 C           9.7759    0.1238    0.0000 C.3     1  UNL1       -0.0045
     18 C           8.9099    1.6238    0.0000 C.3     1  UNL1        0.0646
     19 C           7.1499   -0.4108    0.0000 C.3     1  UNL1       -0.0406
     20 C           9.7759    1.1238    0.0000 C.3     1  UNL1       -0.0206
     21 C           8.1009   -0.9640    0.0000 C.3     1  UNL1       -0.0110
     22 C           6.2439    1.1446    0.0000 C.3     1  UNL1        0.1123
     23 C           9.7189   -0.9640    0.0000 C.3     1  UNL1        0.1635
     24 C           6.2439    0.1030    0.0000 C.3     1  UNL1       -0.0144
     25 C           7.7020   -0.8159    0.0000 C.3     1  UNL1        0.0512
     26 C           8.5439    1.9899    0.0000 C.3     1  UNL1        0.0535
     27 C           6.6600    2.5302    0.0000 C.3     1  UNL1        0.0566
     28 C           8.4099   -1.9150    0.0000 C.3     1  UNL1        0.0902
     29 C           7.6599    2.5187    0.0000 C.3     1  UNL1        0.0544
     30 C          10.7607    0.2975    0.0000 C.3     1  UNL1        0.0478
     31 C           7.8221   -2.7240    0.0000 C.ar    1  UNL1        0.0189
     32 C           5.7243    2.8831    0.0000 C.2     1  UNL1        0.3054
     33 C           4.6140    0.5585    0.0000 C.2     1  UNL1        0.3348
     34 C           6.8221   -2.7240    0.0000 C.ar    1  UNL1       -0.0183
     35 C           8.1311   -3.6751    0.0000 C.ar    1  UNL1        0.0973
     36 C           6.5131   -3.6751    0.0000 C.ar    1  UNL1        0.0920
     37 C           3.6299    0.7360    0.0000 C.2     1  UNL1        0.0293
     38 C           3.2915    1.6770    0.0000 C.3     1  UNL1       -0.0333
     39 C           2.9841   -0.0276    0.0000 C.2     1  UNL1       -0.0774
     40 C           2.0000    0.1499    0.0000 C.3     1  UNL1       -0.0461
     41 H           9.9880   -0.4588    0.0000 H       1  UNL1        0.0331
     42 H           9.4468    1.9338    0.0000 H       1  UNL1        0.0600
     43 H           6.7563   -0.8898    0.0000 H       1  UNL1        0.0273
     44 H           7.5545   -0.8806    0.0000 H       1  UNL1        0.0273
     45 H          10.3865    1.0162    0.0000 H       1  UNL1        0.0294
     46 H           9.9880    1.7064    0.0000 H       1  UNL1        0.0294
     47 H           7.7909   -0.4270    0.0000 H       1  UNL1        0.0301
     48 H           7.5345   -1.2161    0.0000 H       1  UNL1        0.0301
     49 H           6.1397    1.7558    0.0000 H       1  UNL1        0.0740
     50 H          10.0195   -0.4217    0.0000 H       1  UNL1        0.0914
     51 H           5.6330    0.2091    0.0000 H       1  UNL1        0.0301
     52 H           6.0348   -0.4807    0.0000 H       1  UNL1        0.0301
     53 H           7.7020   -1.4359    0.0000 H       1  UNL1        0.0563
     54 H           8.3125   -0.9235    0.0000 H       1  UNL1        0.0563
     55 H           8.6515    2.6004    0.0000 H       1  UNL1        0.0564
     56 H           7.9613    2.2019    0.0000 H       1  UNL1        0.0564
     57 H           7.2649    2.6662    0.0000 H       1  UNL1        0.0385
     58 H           6.7032    3.1487    0.0000 H       1  UNL1        0.0385
     59 H           8.6914   -2.4674    0.0000 H       1  UNL1        0.0648
     60 H           8.1302    2.1147    0.0000 H       1  UNL1        0.0564
     61 H           8.1394    2.9117    0.0000 H       1  UNL1        0.0564
     62 H          10.7607   -0.3225    0.0000 H       1  UNL1        0.0560
     63 H          11.3713    0.1898    0.0000 H       1  UNL1        0.0560
     64 H           8.3730    2.9338    0.0000 H       1  UNL1        0.2098
     65 H          10.7324   -1.9525    0.0000 H       1  UNL1        0.2125
     66 H           6.3185   -0.5145    0.0000 H       1  UNL1        0.2094
     67 H           9.8539    2.5268    0.0000 H       1  UNL1        0.2094
     68 H           7.4862    3.9238    0.0000 H       1  UNL1        0.2094
     69 H          11.7133    1.3448    0.0000 H       1  UNL1        0.2094
     70 H           6.4577   -2.2224    0.0000 H       1  UNL1        0.0652
     71 H           8.7208   -3.8667    0.0000 H       1  UNL1        0.1033
     72 H           6.0416    4.2629    0.0000 H       1  UNL1        0.2951
     73 H           5.9234   -3.8667    0.0000 H       1  UNL1        0.1029
     74 H           3.8749    1.8868    0.0000 H       1  UNL1        0.0280
     75 H           3.0817    2.2604    0.0000 H       1  UNL1        0.0280
     76 H           2.7080    1.4672    0.0000 H       1  UNL1        0.0280
     77 H           3.1939   -0.6109    0.0000 H       1  UNL1        0.0574
     78 H           2.1100    0.7600    0.0000 H       1  UNL1        0.0272
     79 H           1.3898    0.2599    0.0000 H       1  UNL1        0.0272
     80 H           1.8900   -0.4603    0.0000 H       1  UNL1        0.0272
@<TRIPOS>BOND
     1     1    23    1
     2     1    28    1
     3    18     2    1
     4     2    64    1
     5    22     3    1
     6     3    33    1
     7    23     4    1
     8     4    65    1
     9     5    25    1
    10     5    66    1
    11     6    26    1
    12     6    67    1
    13     7    29    1
    14     7    68    1
    15     8    30    1
    16     8    69    1
    17     9    32    1
    18     9    72    1
    19    10    32    2
    20    11    35   ar
    21    11    36   ar
    22    12    33    2
    23    13    14    1
    24    13    15    1
    25    13    19    1
    26    13    25    1
    27    14    16    1
    28    14    18    1
    29    14    26    1
    30    15    17    1
    31    15    21    1
    32    15    23    1
    33    16    22    1
    34    16    27    1
    35    16    29    1
    36    17    20    1
    37    17    30    1
    38    17    41    1
    39    18    20    1
    40    18    42    1
    41    19    24    1
    42    19    43    1
    43    19    44    1
    44    20    45    1
    45    20    46    1
    46    21    28    1
    47    21    47    1
    48    21    48    1
    49    22    24    1
    50    22    49    1
    51    23    50    1
    52    24    51    1
    53    24    52    1
    54    25    53    1
    55    25    54    1
    56    26    55    1
    57    26    56    1
    58    27    32    1
    59    27    57    1
    60    27    58    1
    61    28    31    1
    62    28    59    1
    63    29    60    1
    64    29    61    1
    65    30    62    1
    66    30    63    1
    67    31    34   ar
    68    31    35   ar
    69    33    37    1
    70    34    36   ar
    71    34    70    1
    72    35    71    1
    73    36    73    1
    74    37    38    1
    75    37    39    2
    76    38    74    1
    77    38    75    1
    78    38    76    1
    79    39    40    1
    80    39    77    1
    81    40    78    1
    82    40    79    1
    83    40    80    1
