@<TRIPOS>MOLECULE
IMPHY007624
 35 37 0 0 0
SMALL
GASTEIGER

@<TRIPOS>ATOM
      1 O           6.3981   -0.9254    0.0000 O.3     1  UNL1       -0.4802
      2 O           8.1301    1.0746    0.0000 O.3     1  UNL1       -0.3798
      3 O           6.3981    2.0746    0.0000 O.2     1  UNL1       -0.2889
      4 O           4.6497    2.1092    0.0000 O.3     1  UNL1       -0.5058
      5 O           2.8680   -0.9495    0.0000 O.3     1  UNL1       -0.4949
      6 C           7.2641   -0.4254    0.0000 C.3     1  UNL1        0.1581
      7 C           7.2641    0.5746    0.0000 C.3     1  UNL1        0.1585
      8 C           5.5320    0.5746    0.0000 C.ar    1  UNL1        0.1033
      9 C           6.3981    1.0746    0.0000 C.2     1  UNL1        0.2024
     10 C           8.1301   -0.9254    0.0000 C.ar    1  UNL1       -0.0044
     11 C           5.5320   -0.4254    0.0000 C.ar    1  UNL1        0.1391
     12 C           4.6381    1.1093    0.0000 C.ar    1  UNL1        0.1344
     13 C           4.6381   -0.9601    0.0000 C.ar    1  UNL1        0.0227
     14 C           8.1301   -1.9254    0.0000 C.ar    1  UNL1       -0.0550
     15 C           8.9962   -0.4254    0.0000 C.ar    1  UNL1       -0.0550
     16 C           3.7320   -0.4462    0.0000 C.ar    1  UNL1        0.1271
     17 C           3.7320    0.5954    0.0000 C.ar    1  UNL1        0.0225
     18 C           8.9962   -2.4254    0.0000 C.ar    1  UNL1       -0.0614
     19 C           9.8622   -0.9254    0.0000 C.ar    1  UNL1       -0.0614
     20 C           9.8622   -1.9254    0.0000 C.ar    1  UNL1       -0.0617
     21 C           2.0000   -0.4529    0.0000 C.3     1  UNL1        0.0788
     22 H           7.2641   -1.0454    0.0000 H       1  UNL1        0.0815
     23 H           7.2641    1.1946    0.0000 H       1  UNL1        0.0718
     24 H           4.6453   -1.5800    0.0000 H       1  UNL1        0.0691
     25 H           7.5932   -2.2354    0.0000 H       1  UNL1        0.0621
     26 H           8.9962    0.1946    0.0000 H       1  UNL1        0.0621
     27 H           3.1963    0.9075    0.0000 H       1  UNL1        0.0691
     28 H           8.1301    1.6946    0.0000 H       1  UNL1        0.2105
     29 H           8.9962   -3.0454    0.0000 H       1  UNL1        0.0618
     30 H          10.3991   -0.6154    0.0000 H       1  UNL1        0.0618
     31 H          10.3991   -2.2354    0.0000 H       1  UNL1        0.0618
     32 H           4.1164    2.4254    0.0000 H       1  UNL1        0.2922
     33 H           2.3079    0.0852    0.0000 H       1  UNL1        0.0660
     34 H           1.4619   -0.1450    0.0000 H       1  UNL1        0.0660
     35 H           1.6921   -0.9910    0.0000 H       1  UNL1        0.0660
@<TRIPOS>BOND
     1     1     6    1
     2     1    11    1
     3     7     2    1
     4     2    28    1
     5     3     9    2
     6     4    12    1
     7     4    32    1
     8     5    16    1
     9     5    21    1
    10     6     7    1
    11     6    10    1
    12     6    22    1
    13     7     9    1
    14     7    23    1
    15     8     9    1
    16     8    11   ar
    17     8    12   ar
    18    10    14   ar
    19    10    15   ar
    20    11    13   ar
    21    12    17   ar
    22    13    16   ar
    23    13    24    1
    24    14    18   ar
    25    14    25    1
    26    15    19   ar
    27    15    26    1
    28    16    17   ar
    29    17    27    1
    30    18    20   ar
    31    18    29    1
    32    19    20   ar
    33    19    30    1
    34    20    31    1
    35    21    33    1
    36    21    34    1
    37    21    35    1
