@<TRIPOS>MOLECULE
IMPHY008034
 43 44 0 0 0
SMALL
GASTEIGER

@<TRIPOS>ATOM
      1 O           2.6200   -1.5650    0.0000 O.3     1  UNL1       -0.3885
      2 O           3.1200    2.3010    0.0000 O.3     1  UNL1       -0.3912
      3 C           3.9860    0.8010    0.0000 C.3     1  UNL1       -0.0001
      4 C           3.9860   -0.1990    0.0000 C.3     1  UNL1        0.0016
      5 C           4.9322   -0.5037    0.0000 C.3     1  UNL1       -0.0166
      6 C           3.1200   -0.6990    0.0000 C.3     1  UNL1        0.0673
      7 C           4.9322    1.1057    0.0000 C.3     1  UNL1       -0.0444
      8 C           3.1200    1.3010    0.0000 C.3     1  UNL1        0.0611
      9 C           5.5158    0.3010    0.0000 C.3     1  UNL1       -0.0458
     10 C           2.2540   -0.1990    0.0000 C.3     1  UNL1       -0.0216
     11 C           2.2540    0.8010    0.0000 C.3     1  UNL1       -0.0237
     12 C           3.9860    1.8010    0.0000 C.3     1  UNL1       -0.0568
     13 C           3.6200   -1.5650    0.0000 C.3     1  UNL1       -0.0358
     14 C           5.2429   -1.4543    0.0000 C.2     1  UNL1       -0.0818
     15 C           6.2214   -1.6605    0.0000 C.2     1  UNL1       -0.0793
     16 C           6.5321   -2.6110    0.0000 C.3     1  UNL1       -0.0440
     17 C           6.8893   -0.9162    0.0000 C.3     1  UNL1       -0.0440
     18 H           4.0760   -1.0442    0.0000 H       1  UNL1        0.0340
     19 H           5.5447   -0.5999    0.0000 H       1  UNL1        0.0347
     20 H           5.4696    1.4150    0.0000 H       1  UNL1        0.0272
     21 H           4.6812    1.6726    0.0000 H       1  UNL1        0.0272
     22 H           2.5831    1.6110    0.0000 H       1  UNL1        0.0599
     23 H           5.9767   -0.1137    0.0000 H       1  UNL1        0.0271
     24 H           5.9767    0.7157    0.0000 H       1  UNL1        0.0271
     25 H           1.6434   -0.0913    0.0000 H       1  UNL1        0.0294
     26 H           2.0419   -0.7816    0.0000 H       1  UNL1        0.0294
     27 H           2.0419    1.3836    0.0000 H       1  UNL1        0.0291
     28 H           1.6434    0.6933    0.0000 H       1  UNL1        0.0291
     29 H           4.6060    1.8010    0.0000 H       1  UNL1        0.0236
     30 H           3.9860    2.4210    0.0000 H       1  UNL1        0.0236
     31 H           3.3660    1.8010    0.0000 H       1  UNL1        0.0236
     32 H           3.0831   -1.8750    0.0000 H       1  UNL1        0.0257
     33 H           3.9300   -2.1020    0.0000 H       1  UNL1        0.0257
     34 H           4.1569   -1.2550    0.0000 H       1  UNL1        0.0257
     35 H           4.8288   -1.9157    0.0000 H       1  UNL1        0.0574
     36 H           2.0000   -1.5650    0.0000 H       1  UNL1        0.2102
     37 H           2.5831    2.6110    0.0000 H       1  UNL1        0.2098
     38 H           7.3507   -1.3302    0.0000 H       1  UNL1        0.0274
     39 H           7.3033   -0.4547    0.0000 H       1  UNL1        0.0274
     40 H           6.4278   -0.5021    0.0000 H       1  UNL1        0.0274
     41 H           5.9428   -2.8036    0.0000 H       1  UNL1        0.0274
     42 H           6.7247   -3.2003    0.0000 H       1  UNL1        0.0274
     43 H           7.1214   -2.4184    0.0000 H       1  UNL1        0.0274
@<TRIPOS>BOND
     1     6     1    1
     2     1    36    1
     3     8     2    1
     4     2    37    1
     5     3     4    1
     6     3     7    1
     7     3     8    1
     8     3    12    1
     9     4     5    1
    10     4     6    1
    11     4    18    1
    12     5     9    1
    13     5    14    1
    14     5    19    1
    15     6    10    1
    16     6    13    1
    17     7     9    1
    18     7    20    1
    19     7    21    1
    20     8    11    1
    21     8    22    1
    22     9    23    1
    23     9    24    1
    24    10    11    1
    25    10    25    1
    26    10    26    1
    27    11    27    1
    28    11    28    1
    29    12    29    1
    30    12    30    1
    31    12    31    1
    32    13    32    1
    33    13    33    1
    34    13    34    1
    35    14    15    2
    36    14    35    1
    37    15    16    1
    38    15    17    1
    39    16    41    1
    40    16    42    1
    41    16    43    1
    42    17    38    1
    43    17    39    1
    44    17    40    1
