@<TRIPOS>MOLECULE
IMPHY008645
 44 44 0 0 0
SMALL
GASTEIGER

@<TRIPOS>ATOM
      1 O           8.5991   -1.2500    0.0000 O.3     1  UNL1       -0.3914
      2 O           7.7331    0.2500    0.0000 O.2     1  UNL1       -0.2973
      3 O           4.2690    4.2500    0.0000 O.3     1  UNL1       -0.4915
      4 O           2.5369    3.2500    0.0000 O.3     1  UNL1       -0.5033
      5 C           7.7331   -1.7500    0.0000 C.3     1  UNL1        0.0619
      6 C           7.7331   -2.7500    0.0000 C.3     1  UNL1       -0.0265
      7 C           6.8671   -1.2500    0.0000 C.3     1  UNL1        0.0319
      8 C           8.5991   -3.2500    0.0000 C.3     1  UNL1       -0.0510
      9 C           6.8671   -0.2500    0.0000 C.2     1  UNL1        0.1361
     10 C           6.0010    0.2500    0.0000 C.3     1  UNL1        0.0099
     11 C           8.5991   -4.2500    0.0000 C.3     1  UNL1       -0.0558
     12 C           6.0010    1.2500    0.0000 C.3     1  UNL1       -0.0209
     13 C           5.1350    1.7500    0.0000 C.ar    1  UNL1       -0.0433
     14 C           9.4651   -4.7500    0.0000 C.3     1  UNL1       -0.0653
     15 C           5.1350    2.7500    0.0000 C.ar    1  UNL1       -0.0131
     16 C           4.2690    1.2500    0.0000 C.ar    1  UNL1       -0.0549
     17 C           4.2690    3.2500    0.0000 C.ar    1  UNL1        0.1615
     18 C           3.4030    1.7500    0.0000 C.ar    1  UNL1       -0.0163
     19 C           3.4030    2.7500    0.0000 C.ar    1  UNL1        0.1585
     20 C           5.1350    4.7500    0.0000 C.3     1  UNL1        0.0790
     21 H           7.7331   -1.1300    0.0000 H       1  UNL1        0.0597
     22 H           7.1225   -2.6423    0.0000 H       1  UNL1        0.0290
     23 H           7.5210   -3.3326    0.0000 H       1  UNL1        0.0290
     24 H           6.2565   -1.1423    0.0000 H       1  UNL1        0.0367
     25 H           6.6550   -1.8326    0.0000 H       1  UNL1        0.0367
     26 H           9.2097   -3.3577    0.0000 H       1  UNL1        0.0266
     27 H           8.8112   -2.6674    0.0000 H       1  UNL1        0.0266
     28 H           5.3905    0.3577    0.0000 H       1  UNL1        0.0345
     29 H           5.7890   -0.3326    0.0000 H       1  UNL1        0.0345
     30 H           7.9885   -4.1423    0.0000 H       1  UNL1        0.0263
     31 H           8.3871   -4.8326    0.0000 H       1  UNL1        0.0263
     32 H           6.6116    1.1423    0.0000 H       1  UNL1        0.0317
     33 H           6.2131    1.8326    0.0000 H       1  UNL1        0.0317
     34 H           9.1551   -5.2869    0.0000 H       1  UNL1        0.0230
     35 H          10.0021   -5.0600    0.0000 H       1  UNL1        0.0230
     36 H           9.7751   -4.2131    0.0000 H       1  UNL1        0.0230
     37 H           9.1360   -1.5600    0.0000 H       1  UNL1        0.2098
     38 H           5.6720    3.0600    0.0000 H       1  UNL1        0.0658
     39 H           4.2690    0.6300    0.0000 H       1  UNL1        0.0621
     40 H           2.8660    1.4400    0.0000 H       1  UNL1        0.0655
     41 H           2.0000    2.9400    0.0000 H       1  UNL1        0.2923
     42 H           5.4450    4.2131    0.0000 H       1  UNL1        0.0660
     43 H           5.6720    5.0600    0.0000 H       1  UNL1        0.0660
     44 H           4.8250    5.2869    0.0000 H       1  UNL1        0.0660
@<TRIPOS>BOND
     1     5     1    1
     2     1    37    1
     3     2     9    2
     4     3    17    1
     5     3    20    1
     6     4    19    1
     7     4    41    1
     8     5     6    1
     9     5     7    1
    10     5    21    1
    11     6     8    1
    12     6    22    1
    13     6    23    1
    14     7     9    1
    15     7    24    1
    16     7    25    1
    17     8    11    1
    18     8    26    1
    19     8    27    1
    20     9    10    1
    21    10    12    1
    22    10    28    1
    23    10    29    1
    24    11    14    1
    25    11    30    1
    26    11    31    1
    27    12    13    1
    28    12    32    1
    29    12    33    1
    30    13    15   ar
    31    13    16   ar
    32    14    34    1
    33    14    35    1
    34    14    36    1
    35    15    17   ar
    36    15    38    1
    37    16    18   ar
    38    16    39    1
    39    17    19   ar
    40    18    19   ar
    41    18    40    1
    42    20    42    1
    43    20    43    1
    44    20    44    1
