@<TRIPOS>MOLECULE
IMPHY015890
 57 60 0 0 0
SMALL
GASTEIGER

@<TRIPOS>ATOM
      1 O           6.0682    0.4171    0.0000 O.3     1  UNL1       -0.4907
      2 O          10.4263   -3.1175    0.0000 O.3     1  UNL1       -0.4815
      3 O           8.6663   -0.0829    0.0000 O.3     1  UNL1       -0.5058
      4 O           2.5381    0.4413    0.0000 O.3     1  UNL1       -0.5064
      5 C           6.9343   -1.0829    0.0000 C.3     1  UNL1        0.0258
      6 C           6.0682   -1.5829    0.0000 C.3     1  UNL1       -0.0142
      7 C           6.9343   -0.0829    0.0000 C.3     1  UNL1        0.0968
      8 C           7.8003   -1.5829    0.0000 C.ar    1  UNL1        0.0015
      9 C           5.2022   -1.0829    0.0000 C.ar    1  UNL1       -0.0045
     10 C           5.2022   -0.0829    0.0000 C.ar    1  UNL1        0.1306
     11 C           8.6663   -1.0829    0.0000 C.ar    1  UNL1        0.1310
     12 C           9.5323   -1.5829    0.0000 C.ar    1  UNL1        0.0582
     13 C           4.3083    0.4518    0.0000 C.ar    1  UNL1        0.0396
     14 C          11.3324   -2.6037    0.0000 C.3     1  UNL1        0.1235
     15 C           7.8003   -2.5829    0.0000 C.ar    1  UNL1       -0.0512
     16 C           9.5323   -2.5829    0.0000 C.ar    1  UNL1        0.1324
     17 C           4.3083   -1.6175    0.0000 C.ar    1  UNL1       -0.0516
     18 C           8.6663   -3.0829    0.0000 C.ar    1  UNL1       -0.0188
     19 C          10.4263   -1.0482    0.0000 C.2     1  UNL1       -0.0478
     20 C          11.3324   -1.5620    0.0000 C.2     1  UNL1       -0.0408
     21 C           3.4022   -0.0620    0.0000 C.ar    1  UNL1        0.1238
     22 C           4.3198    1.4517    0.0000 C.3     1  UNL1       -0.0023
     23 C           3.4022   -1.1037    0.0000 C.ar    1  UNL1       -0.0194
     24 C          12.3324   -2.6075    0.0000 C.3     1  UNL1       -0.0215
     25 C          11.8290   -3.4716    0.0000 C.3     1  UNL1       -0.0215
     26 C           3.4597    1.9617    0.0000 C.2     1  UNL1       -0.0807
     27 C           3.4712    2.9616    0.0000 C.2     1  UNL1       -0.0793
     28 C           2.6110    3.4716    0.0000 C.3     1  UNL1       -0.0440
     29 C           4.3430    3.4516    0.0000 C.3     1  UNL1       -0.0440
     30 H           6.9343   -1.7029    0.0000 H       1  UNL1        0.0386
     31 H           5.6697   -2.0578    0.0000 H       1  UNL1        0.0321
     32 H           6.4668   -2.0578    0.0000 H       1  UNL1        0.0321
     33 H           7.5449   -0.1905    0.0000 H       1  UNL1        0.0703
     34 H           7.1463    0.4997    0.0000 H       1  UNL1        0.0703
     35 H           7.2634   -2.8929    0.0000 H       1  UNL1        0.0623
     36 H           4.3154   -2.2375    0.0000 H       1  UNL1        0.0623
     37 H           8.6663   -3.7029    0.0000 H       1  UNL1        0.0654
     38 H          10.4191   -0.4282    0.0000 H       1  UNL1        0.0624
     39 H          11.8681   -1.2500    0.0000 H       1  UNL1        0.0611
     40 H           4.9291    1.3370    0.0000 H       1  UNL1        0.0358
     41 H           4.5386    2.0318    0.0000 H       1  UNL1        0.0358
     42 H           2.8665   -1.4158    0.0000 H       1  UNL1        0.0654
     43 H          12.3300   -3.2275    0.0000 H       1  UNL1        0.0271
     44 H          12.9524   -2.6099    0.0000 H       1  UNL1        0.0271
     45 H          12.3347   -1.9875    0.0000 H       1  UNL1        0.0271
     46 H          11.2909   -3.7796    0.0000 H       1  UNL1        0.0271
     47 H          12.1369   -4.0098    0.0000 H       1  UNL1        0.0271
     48 H          12.3671   -3.1637    0.0000 H       1  UNL1        0.0271
     49 H           9.2033    0.2271    0.0000 H       1  UNL1        0.2922
     50 H           2.9192    1.6579    0.0000 H       1  UNL1        0.0575
     51 H           2.0000    0.1334    0.0000 H       1  UNL1        0.2921
     52 H           2.9272    4.0049    0.0000 H       1  UNL1        0.0274
     53 H           2.0777    3.7878    0.0000 H       1  UNL1        0.0274
     54 H           2.2948    2.9383    0.0000 H       1  UNL1        0.0274
     55 H           4.6468    2.9111    0.0000 H       1  UNL1        0.0274
     56 H           4.8835    3.7554    0.0000 H       1  UNL1        0.0274
     57 H           4.0392    3.9921    0.0000 H       1  UNL1        0.0274
@<TRIPOS>BOND
     1     1     7    1
     2     1    10    1
     3     2    14    1
     4     2    16    1
     5     3    11    1
     6     3    49    1
     7     4    21    1
     8     4    51    1
     9     5     6    1
    10     5     7    1
    11     5     8    1
    12     5    30    1
    13     6     9    1
    14     6    31    1
    15     6    32    1
    16     7    33    1
    17     7    34    1
    18     8    11   ar
    19     8    15   ar
    20     9    10   ar
    21     9    17   ar
    22    10    13   ar
    23    11    12   ar
    24    12    16   ar
    25    12    19    1
    26    13    21   ar
    27    13    22    1
    28    14    20    1
    29    14    24    1
    30    14    25    1
    31    15    18   ar
    32    15    35    1
    33    16    18   ar
    34    17    23   ar
    35    17    36    1
    36    18    37    1
    37    19    20    2
    38    19    38    1
    39    20    39    1
    40    21    23   ar
    41    22    26    1
    42    22    40    1
    43    22    41    1
    44    23    42    1
    45    24    43    1
    46    24    44    1
    47    24    45    1
    48    25    46    1
    49    25    47    1
    50    25    48    1
    51    26    27    2
    52    26    50    1
    53    27    28    1
    54    27    29    1
    55    28    52    1
    56    28    53    1
    57    28    54    1
    58    29    55    1
    59    29    56    1
    60    29    57    1
