@<TRIPOS>MOLECULE
IMPHY010057
 40 40 0 0 0
SMALL
GASTEIGER

@<TRIPOS>ATOM
      1 O           6.0010    1.9400    0.0000 O.2     1  UNL1       -0.2924
      2 C           5.1350    0.4400    0.0000 C.3     1  UNL1        0.0241
      3 C           6.0010   -0.0600    0.0000 C.3     1  UNL1       -0.0369
      4 C           4.2690   -0.0600    0.0000 C.3     1  UNL1       -0.0393
      5 C           4.2690   -1.0600    0.0000 C.3     1  UNL1       -0.0313
      6 C           5.1350    1.4400    0.0000 C.2     1  UNL1        0.1593
      7 C           6.8671    0.4400    0.0000 C.3     1  UNL1       -0.0620
      8 C           6.0010   -1.0600    0.0000 C.3     1  UNL1       -0.0620
      9 C           3.4030   -1.5600    0.0000 C.2     1  UNL1       -0.0765
     10 C           4.2690    1.9400    0.0000 C.2     1  UNL1       -0.0199
     11 C           3.4030    0.4400    0.0000 C.3     1  UNL1       -0.0282
     12 C           2.5369   -0.0600    0.0000 C.3     1  UNL1       -0.0308
     13 C           3.4030    1.4400    0.0000 C.2     1  UNL1       -0.0690
     14 C           2.5369   -1.0600    0.0000 C.2     1  UNL1       -0.0847
     15 C           3.4030   -2.5600    0.0000 C.3     1  UNL1       -0.0438
     16 C           2.5369    1.9400    0.0000 C.3     1  UNL1       -0.0434
     17 H           5.1350   -0.1800    0.0000 H       1  UNL1        0.0383
     18 H           6.5380   -0.3700    0.0000 H       1  UNL1        0.0302
     19 H           4.0569    0.5226    0.0000 H       1  UNL1        0.0275
     20 H           3.6584   -0.1677    0.0000 H       1  UNL1        0.0275
     21 H           4.4810   -1.6426    0.0000 H       1  UNL1        0.0310
     22 H           4.8796   -0.9523    0.0000 H       1  UNL1        0.0310
     23 H           7.1771   -0.0969    0.0000 H       1  UNL1        0.0233
     24 H           7.4040    0.7500    0.0000 H       1  UNL1        0.0233
     25 H           6.5571    0.9769    0.0000 H       1  UNL1        0.0233
     26 H           5.3810   -1.0600    0.0000 H       1  UNL1        0.0233
     27 H           6.0010   -1.6800    0.0000 H       1  UNL1        0.0233
     28 H           6.6210   -1.0600    0.0000 H       1  UNL1        0.0233
     29 H           4.2690    2.5600    0.0000 H       1  UNL1        0.0652
     30 H           3.6150   -0.1426    0.0000 H       1  UNL1        0.0313
     31 H           4.0135    0.5477    0.0000 H       1  UNL1        0.0313
     32 H           2.3249    0.5226    0.0000 H       1  UNL1        0.0310
     33 H           1.9264   -0.1677    0.0000 H       1  UNL1        0.0310
     34 H           2.0000   -1.3700    0.0000 H       1  UNL1        0.0572
     35 H           2.7830   -2.5600    0.0000 H       1  UNL1        0.0274
     36 H           3.4030   -3.1800    0.0000 H       1  UNL1        0.0274
     37 H           4.0230   -2.5600    0.0000 H       1  UNL1        0.0274
     38 H           2.8469    2.4769    0.0000 H       1  UNL1        0.0274
     39 H           2.0000    2.2500    0.0000 H       1  UNL1        0.0274
     40 H           2.2269    1.4031    0.0000 H       1  UNL1        0.0274
@<TRIPOS>BOND
     1     1     6    2
     2     2     3    1
     3     2     4    1
     4     2     6    1
     5     2    17    1
     6     3     7    1
     7     3     8    1
     8     3    18    1
     9     4     5    1
    10     4    19    1
    11     4    20    1
    12     5     9    1
    13     5    21    1
    14     5    22    1
    15     6    10    1
    16     7    23    1
    17     7    24    1
    18     7    25    1
    19     8    26    1
    20     8    27    1
    21     8    28    1
    22     9    14    2
    23     9    15    1
    24    10    13    2
    25    10    29    1
    26    11    12    1
    27    11    13    1
    28    11    30    1
    29    11    31    1
    30    12    14    1
    31    12    32    1
    32    12    33    1
    33    13    16    1
    34    14    34    1
    35    15    35    1
    36    15    36    1
    37    15    37    1
    38    16    38    1
    39    16    39    1
    40    16    40    1
