@<TRIPOS>MOLECULE
IMPHY016082
 35 35 0 0 0
SMALL
GASTEIGER

@<TRIPOS>ATOM
      1 O           5.5981   -2.8100    0.0000 O.2     1  UNL1       -0.2924
      2 O           5.5981    2.1900    0.0000 O.3     1  UNL1       -0.3880
      3 C           3.0000   -1.3100    0.0000 C.3     1  UNL1       -0.0091
      4 C           3.0000   -2.3100    0.0000 C.3     1  UNL1       -0.0369
      5 C           3.8660   -0.8100    0.0000 C.2     1  UNL1       -0.0357
      6 C           3.8660   -2.8100    0.0000 C.3     1  UNL1        0.0109
      7 C           2.0000   -1.3100    0.0000 C.3     1  UNL1       -0.0558
      8 C           2.5000   -0.4440    0.0000 C.3     1  UNL1       -0.0558
      9 C           4.7320   -1.3100    0.0000 C.2     1  UNL1       -0.0044
     10 C           4.7320   -2.3100    0.0000 C.2     1  UNL1        0.1593
     11 C           3.8660    0.1900    0.0000 C.2     1  UNL1       -0.0592
     12 C           5.5981   -0.8100    0.0000 C.3     1  UNL1       -0.0361
     13 C           4.7320    0.6900    0.0000 C.2     1  UNL1       -0.0559
     14 C           4.7320    1.6900    0.0000 C.3     1  UNL1        0.0708
     15 C           3.8660    2.1900    0.0000 C.3     1  UNL1       -0.0353
     16 H           2.3894   -2.2023    0.0000 H       1  UNL1        0.0278
     17 H           2.7880   -2.8926    0.0000 H       1  UNL1        0.0278
     18 H           3.4675   -3.2850    0.0000 H       1  UNL1        0.0345
     19 H           4.2646   -3.2850    0.0000 H       1  UNL1        0.0345
     20 H           2.0000   -0.6900    0.0000 H       1  UNL1        0.0238
     21 H           1.3800   -1.3100    0.0000 H       1  UNL1        0.0238
     22 H           2.0000   -1.9300    0.0000 H       1  UNL1        0.0238
     23 H           3.0369   -0.1340    0.0000 H       1  UNL1        0.0238
     24 H           2.1900    0.0930    0.0000 H       1  UNL1        0.0238
     25 H           1.9631   -0.7540    0.0000 H       1  UNL1        0.0238
     26 H           3.3291    0.5000    0.0000 H       1  UNL1        0.0618
     27 H           5.9081   -1.3469    0.0000 H       1  UNL1        0.0279
     28 H           6.1350   -0.5000    0.0000 H       1  UNL1        0.0279
     29 H           5.2881   -0.2731    0.0000 H       1  UNL1        0.0279
     30 H           5.2690    0.3800    0.0000 H       1  UNL1        0.0597
     31 H           4.7320    2.3100    0.0000 H       1  UNL1        0.0635
     32 H           4.1760    2.7269    0.0000 H       1  UNL1        0.0258
     33 H           3.3291    2.5000    0.0000 H       1  UNL1        0.0258
     34 H           3.5560    1.6531    0.0000 H       1  UNL1        0.0258
     35 H           5.5981    2.8100    0.0000 H       1  UNL1        0.2102
@<TRIPOS>BOND
     1     1    10    2
     2     2    14    1
     3     2    35    1
     4     3     4    1
     5     3     5    1
     6     3     7    1
     7     3     8    1
     8     4     6    1
     9     4    16    1
    10     4    17    1
    11     5     9    2
    12     5    11    1
    13     6    10    1
    14     6    18    1
    15     6    19    1
    16     7    20    1
    17     7    21    1
    18     7    22    1
    19     8    23    1
    20     8    24    1
    21     8    25    1
    22     9    10    1
    23     9    12    1
    24    11    13    2
    25    11    26    1
    26    12    27    1
    27    12    28    1
    28    12    29    1
    29    13    14    1
    30    13    30    1
    31    14    15    1
    32    14    31    1
    33    15    32    1
    34    15    33    1
    35    15    34    1
