@<TRIPOS>MOLECULE
IMPHY015769
 26 25 0 0 0
SMALL
GASTEIGER

@<TRIPOS>ATOM
      1 O           3.7320    0.2500    0.0000 O.3     1  UNL1       -0.4617
      2 O           4.5981   -1.2500    0.0000 O.2     1  UNL1       -0.2505
      3 C           5.4641    0.2500    0.0000 C.3     1  UNL1        0.0534
      4 C           6.3301   -0.2500    0.0000 C.3     1  UNL1       -0.0432
      5 C           4.5981   -0.2500    0.0000 C.2     1  UNL1        0.3102
      6 C           5.4641    1.2500    0.0000 C.3     1  UNL1       -0.0523
      7 C           2.8660   -0.2500    0.0000 C.3     1  UNL1        0.0975
      8 C           7.1962    0.2500    0.0000 C.3     1  UNL1       -0.0645
      9 C           2.0000    0.2500    0.0000 C.3     1  UNL1       -0.0280
     10 C           2.8660   -1.2500    0.0000 C.3     1  UNL1       -0.0280
     11 H           6.0010    0.5600    0.0000 H       1  UNL1        0.0410
     12 H           5.9316   -0.7249    0.0000 H       1  UNL1        0.0270
     13 H           6.7287   -0.7249    0.0000 H       1  UNL1        0.0270
     14 H           6.0841    1.2500    0.0000 H       1  UNL1        0.0238
     15 H           5.4641    1.8700    0.0000 H       1  UNL1        0.0238
     16 H           4.8441    1.2500    0.0000 H       1  UNL1        0.0238
     17 H           2.8660    0.3700    0.0000 H       1  UNL1        0.0728
     18 H           7.5062   -0.2869    0.0000 H       1  UNL1        0.0230
     19 H           7.7331    0.5600    0.0000 H       1  UNL1        0.0230
     20 H           6.8862    0.7869    0.0000 H       1  UNL1        0.0230
     21 H           2.3100    0.7869    0.0000 H       1  UNL1        0.0265
     22 H           1.4631    0.5600    0.0000 H       1  UNL1        0.0265
     23 H           1.6900   -0.2869    0.0000 H       1  UNL1        0.0265
     24 H           2.2460   -1.2500    0.0000 H       1  UNL1        0.0265
     25 H           2.8660   -1.8700    0.0000 H       1  UNL1        0.0265
     26 H           3.4860   -1.2500    0.0000 H       1  UNL1        0.0265
@<TRIPOS>BOND
     1     1     5    1
     2     1     7    1
     3     2     5    2
     4     3     4    1
     5     3     5    1
     6     3     6    1
     7     3    11    1
     8     4     8    1
     9     4    12    1
    10     4    13    1
    11     6    14    1
    12     6    15    1
    13     6    16    1
    14     7     9    1
    15     7    10    1
    16     7    17    1
    17     8    18    1
    18     8    19    1
    19     8    20    1
    20     9    21    1
    21     9    22    1
    22     9    23    1
    23    10    24    1
    24    10    25    1
    25    10    26    1
