@<TRIPOS>MOLECULE
IMPHY007140
 11 10 0 0 0
SMALL
GASTEIGER

@<TRIPOS>ATOM
      1 O           2.8660   -0.7500    0.0000 O.2     1  UNL1       -0.2930
      2 C           2.0000    0.7500    0.0000 C.3     1  UNL1       -0.0020
      3 C           2.8660    0.2500    0.0000 C.2     1  UNL1        0.1525
      4 C           3.7320    0.7500    0.0000 C.2     1  UNL1       -0.0266
      5 C           4.5981    0.2500    0.0000 C.2     1  UNL1       -0.0954
      6 H           2.3100    1.2869    0.0000 H       1  UNL1        0.0309
      7 H           1.4631    1.0600    0.0000 H       1  UNL1        0.0309
      8 H           1.6900    0.2131    0.0000 H       1  UNL1        0.0309
      9 H           3.7320    1.3700    0.0000 H       1  UNL1        0.0646
     10 H           4.5981   -0.3700    0.0000 H       1  UNL1        0.0536
     11 H           5.1350    0.5600    0.0000 H       1  UNL1        0.0536
@<TRIPOS>BOND
     1     1     3    2
     2     2     3    1
     3     2     6    1
     4     2     7    1
     5     2     8    1
     6     3     4    1
     7     4     5    2
     8     4     9    1
     9     5    10    1
    10     5    11    1
