@<TRIPOS>MOLECULE
IMPHY005176
 97 101 0 0 0
SMALL
GASTEIGER

@<TRIPOS>ATOM
      1 O           8.7832   -2.9697    0.0000 O.3     1  UNL1       -0.3910
      2 O          14.1352    3.2439    0.0000 O.3     1  UNL1       -0.3912
      3 O           6.3020   -2.7672    0.0000 O.3     1  UNL1       -0.3874
      4 O           5.1343   -1.9528    0.0000 O.3     1  UNL1       -0.4549
      5 O           7.5203   -3.3859    0.0000 O.3     1  UNL1       -0.3943
      6 O           4.2740   -0.4495    0.0000 O.2     1  UNL1       -0.2453
      7 C          10.5273    0.0995    0.0000 C.3     1  UNL1       -0.0193
      8 C          10.5273    1.0995    0.0000 C.3     1  UNL1       -0.0257
      9 C           9.6613   -0.4005    0.0000 C.3     1  UNL1       -0.0028
     10 C          11.4213    1.6342    0.0000 C.3     1  UNL1       -0.0250
     11 C          12.3273    1.1204    0.0000 C.3     1  UNL1       -0.0278
     12 C          11.4213   -0.4351    0.0000 C.3     1  UNL1       -0.0463
     13 C           8.7953    0.0995    0.0000 C.2     1  UNL1       -0.0631
     14 C           7.8853   -0.4073    0.0000 C.3     1  UNL1       -0.0062
     15 C           7.8773   -1.4489    0.0000 C.3     1  UNL1        0.0556
     16 C          12.3273    0.0787    0.0000 C.3     1  UNL1       -0.0486
     17 C           9.6774   -1.4420    0.0000 C.3     1  UNL1       -0.0165
     18 C          13.2711    1.6556    0.0000 C.3     1  UNL1       -0.0056
     19 C           9.6613    1.5995    0.0000 C.3     1  UNL1       -0.0306
     20 C          11.3962    2.7189    0.0000 C.3     1  UNL1       -0.0447
     21 C           8.7793   -1.9697    0.0000 C.3     1  UNL1        0.0668
     22 C          10.8695   -0.8401    0.0000 C.3     1  UNL1       -0.0585
     23 C           8.7953    1.0995    0.0000 C.2     1  UNL1       -0.0836
     24 C           6.9584    0.1568    0.0000 C.3     1  UNL1       -0.0371
     25 C          13.2711    2.7406    0.0000 C.3     1  UNL1        0.0606
     26 C          10.3041   -1.1665    0.0000 C.3     1  UNL1       -0.0552
     27 C           6.9418   -1.9986    0.0000 C.3     1  UNL1        0.1032
     28 C          10.5514    2.1275    0.0000 C.3     1  UNL1       -0.0590
     29 C          12.3273    3.2758    0.0000 C.3     1  UNL1       -0.0258
     30 C           6.0106   -0.3712    0.0000 C.3     1  UNL1        0.0052
     31 C           6.0022   -1.4561    0.0000 C.3     1  UNL1        0.1349
     32 C           7.8696   -2.4489    0.0000 C.3     1  UNL1        0.0552
     33 C          14.2711    1.6517    0.0000 C.3     1  UNL1       -0.0572
     34 C          13.7678    0.7876    0.0000 C.3     1  UNL1       -0.0572
     35 C           5.5206    0.5006    0.0000 C.3     1  UNL1       -0.0563
     36 C           5.0106   -0.3596    0.0000 C.3     1  UNL1       -0.0563
     37 C           4.2702   -1.4495    0.0000 C.2     1  UNL1        0.3349
     38 C           3.4022   -1.9461    0.0000 C.2     1  UNL1        0.0293
     39 C           3.3984   -2.9461    0.0000 C.3     1  UNL1       -0.0333
     40 C           2.5381   -1.4428    0.0000 C.2     1  UNL1       -0.0774
     41 C           2.5420   -0.4428    0.0000 C.3     1  UNL1       -0.0461
     42 H          11.2667    0.6802    0.0000 H       1  UNL1        0.0315
     43 H          13.0618    0.6925    0.0000 H       1  UNL1        0.0312
     44 H          11.0167   -0.9049    0.0000 H       1  UNL1        0.0271
     45 H          11.8149   -0.9141    0.0000 H       1  UNL1        0.0271
     46 H           7.9017    0.4425    0.0000 H       1  UNL1        0.0354
     47 H          12.5364   -0.5050    0.0000 H       1  UNL1        0.0268
     48 H          12.9382    0.1848    0.0000 H       1  UNL1        0.0268
     49 H           9.8954   -2.0224    0.0000 H       1  UNL1        0.0299
     50 H          10.2865   -1.3265    0.0000 H       1  UNL1        0.0299
     51 H          10.0598    2.0745    0.0000 H       1  UNL1        0.0310
     52 H           9.2628    2.0745    0.0000 H       1  UNL1        0.0310
     53 H          11.1737    3.2976    0.0000 H       1  UNL1        0.0271
     54 H          10.7880    2.5987    0.0000 H       1  UNL1        0.0271
     55 H           9.3181   -2.2766    0.0000 H       1  UNL1        0.0601
     56 H          10.2869   -1.0522    0.0000 H       1  UNL1        0.0235
     57 H          11.0816   -1.4227    0.0000 H       1  UNL1        0.0235
     58 H          11.4520   -0.6280    0.0000 H       1  UNL1        0.0235
     59 H           8.2584    1.4095    0.0000 H       1  UNL1        0.0572
     60 H           7.3667    0.6234    0.0000 H       1  UNL1        0.0278
     61 H           6.5685    0.6388    0.0000 H       1  UNL1        0.0278
     62 H           9.8292   -1.5650    0.0000 H       1  UNL1        0.0238
     63 H          10.7026   -1.6415    0.0000 H       1  UNL1        0.0238
     64 H          10.7790   -0.7680    0.0000 H       1  UNL1        0.0238
     65 H          13.8087    2.4316    0.0000 H       1  UNL1        0.0599
     66 H           7.3431   -2.4713    0.0000 H       1  UNL1        0.0638
     67 H          10.8573    2.6668    0.0000 H       1  UNL1        0.0235
     68 H          10.0121    2.4334    0.0000 H       1  UNL1        0.0235
     69 H          10.2456    1.5882    0.0000 H       1  UNL1        0.0235
     70 H          12.7210    3.7548    0.0000 H       1  UNL1        0.0290
     71 H          11.9228    3.7456    0.0000 H       1  UNL1        0.0290
     72 H           5.4671   -1.1430    0.0000 H       1  UNL1        0.0766
     73 H           8.3172   -2.8778    0.0000 H       1  UNL1        0.0564
     74 H           7.2598   -2.3365    0.0000 H       1  UNL1        0.0564
     75 H          14.2687    1.0317    0.0000 H       1  UNL1        0.0236
     76 H          14.8911    1.6493    0.0000 H       1  UNL1        0.0236
     77 H          14.2735    2.2717    0.0000 H       1  UNL1        0.0236
     78 H          13.2297    0.4797    0.0000 H       1  UNL1        0.0236
     79 H          14.0757    0.2495    0.0000 H       1  UNL1        0.0236
     80 H          14.3059    1.0956    0.0000 H       1  UNL1        0.0236
     81 H           9.3213   -3.2776    0.0000 H       1  UNL1        0.2098
     82 H           6.0611    0.8043    0.0000 H       1  UNL1        0.0236
     83 H           5.2168    1.0411    0.0000 H       1  UNL1        0.0236
     84 H           4.9801    0.1968    0.0000 H       1  UNL1        0.0236
     85 H           5.0178    0.2603    0.0000 H       1  UNL1        0.0236
     86 H           4.3907   -0.3524    0.0000 H       1  UNL1        0.0236
     87 H           5.0035   -0.9796    0.0000 H       1  UNL1        0.0236
     88 H           5.6910   -2.6619    0.0000 H       1  UNL1        0.2100
     89 H          14.1328    3.8639    0.0000 H       1  UNL1        0.2098
     90 H           7.9152   -3.8639    0.0000 H       1  UNL1        0.2094
     91 H           2.7784   -2.9437    0.0000 H       1  UNL1        0.0280
     92 H           3.3960   -3.5661    0.0000 H       1  UNL1        0.0280
     93 H           4.0184   -2.9485    0.0000 H       1  UNL1        0.0280
     94 H           2.0000   -1.7507    0.0000 H       1  UNL1        0.0574
     95 H           3.1620   -0.4452    0.0000 H       1  UNL1        0.0272
     96 H           2.5444    0.1772    0.0000 H       1  UNL1        0.0272
     97 H           1.9220   -0.4404    0.0000 H       1  UNL1        0.0272
@<TRIPOS>BOND
     1    21     1    1
     2     1    81    1
     3    25     2    1
     4     2    89    1
     5    27     3    1
     6     3    88    1
     7    31     4    1
     8     4    37    1
     9     5    32    1
    10     5    90    1
    11     6    37    2
    12     7     8    1
    13     7     9    1
    14     7    12    1
    15     7    22    1
    16     8    10    1
    17     8    19    1
    18     8    42    1
    19     9    13    1
    20     9    17    1
    21     9    26    1
    22    10    11    1
    23    10    20    1
    24    10    28    1
    25    11    16    1
    26    11    18    1
    27    11    43    1
    28    12    16    1
    29    12    44    1
    30    12    45    1
    31    13    14    1
    32    13    23    2
    33    14    15    1
    34    14    24    1
    35    14    46    1
    36    15    21    1
    37    15    27    1
    38    15    32    1
    39    16    47    1
    40    16    48    1
    41    17    21    1
    42    17    49    1
    43    17    50    1
    44    18    25    1
    45    18    33    1
    46    18    34    1
    47    19    23    1
    48    19    51    1
    49    19    52    1
    50    20    29    1
    51    20    53    1
    52    20    54    1
    53    21    55    1
    54    22    56    1
    55    22    57    1
    56    22    58    1
    57    23    59    1
    58    24    30    1
    59    24    60    1
    60    24    61    1
    61    25    29    1
    62    25    65    1
    63    26    62    1
    64    26    63    1
    65    26    64    1
    66    27    31    1
    67    27    66    1
    68    28    67    1
    69    28    68    1
    70    28    69    1
    71    29    70    1
    72    29    71    1
    73    30    31    1
    74    30    35    1
    75    30    36    1
    76    31    72    1
    77    32    73    1
    78    32    74    1
    79    33    75    1
    80    33    76    1
    81    33    77    1
    82    34    78    1
    83    34    79    1
    84    34    80    1
    85    35    82    1
    86    35    83    1
    87    35    84    1
    88    36    85    1
    89    36    86    1
    90    36    87    1
    91    37    38    1
    92    38    39    1
    93    38    40    2
    94    39    91    1
    95    39    92    1
    96    39    93    1
    97    40    41    1
    98    40    94    1
    99    41    95    1
   100    41    96    1
   101    41    97    1
