@<TRIPOS>MOLECULE
IMPHY012804
 81 81 0 0 0
SMALL
GASTEIGER

@<TRIPOS>ATOM
      1 O           6.0010   -4.3450    0.0000 O.3     1  UNL1       -0.4616
      2 O           4.2690   -4.3450    0.0000 O.2     1  UNL1       -0.2456
      3 O           2.5369   -9.3450    0.0000 O.3     1  UNL1       -0.5033
      4 O           4.2690  -10.3450    0.0000 O.3     1  UNL1       -0.5033
      5 C          10.3312    3.1550    0.0000 C.3     1  UNL1       -0.0531
      6 C          10.3312    4.1550    0.0000 C.3     1  UNL1       -0.0531
      7 C           9.4651    2.6550    0.0000 C.3     1  UNL1       -0.0531
      8 C          11.1972    4.6550    0.0000 C.3     1  UNL1       -0.0531
      9 C           9.4651    1.6550    0.0000 C.3     1  UNL1       -0.0531
     10 C          11.1972    5.6550    0.0000 C.3     1  UNL1       -0.0531
     11 C           8.5991    1.1550    0.0000 C.3     1  UNL1       -0.0531
     12 C          12.0632    6.1550    0.0000 C.3     1  UNL1       -0.0531
     13 C           8.5991    0.1550    0.0000 C.3     1  UNL1       -0.0531
     14 C          12.0632    7.1550    0.0000 C.3     1  UNL1       -0.0531
     15 C           7.7331   -0.3450    0.0000 C.3     1  UNL1       -0.0531
     16 C          12.9292    7.6550    0.0000 C.3     1  UNL1       -0.0531
     17 C           7.7331   -1.3450    0.0000 C.3     1  UNL1       -0.0530
     18 C          12.9292    8.6550    0.0000 C.3     1  UNL1       -0.0531
     19 C           6.8671   -1.8450    0.0000 C.3     1  UNL1       -0.0500
     20 C          13.7953    9.1550    0.0000 C.3     1  UNL1       -0.0533
     21 C           6.8671   -2.8450    0.0000 C.3     1  UNL1       -0.0185
     22 C          13.7953   10.1550    0.0000 C.3     1  UNL1       -0.0559
     23 C           6.0010   -3.3450    0.0000 C.3     1  UNL1        0.0928
     24 C          14.6613   10.6550    0.0000 C.3     1  UNL1       -0.0653
     25 C           5.1350   -4.8450    0.0000 C.2     1  UNL1        0.3319
     26 C           5.1350   -5.8450    0.0000 C.2     1  UNL1        0.0231
     27 C           4.2690   -6.3450    0.0000 C.2     1  UNL1       -0.0477
     28 C           4.2690   -7.3450    0.0000 C.ar    1  UNL1       -0.0211
     29 C           3.4030   -7.8450    0.0000 C.ar    1  UNL1       -0.0094
     30 C           5.1350   -7.8450    0.0000 C.ar    1  UNL1       -0.0509
     31 C           3.4030   -8.8450    0.0000 C.ar    1  UNL1        0.1588
     32 C           5.1350   -8.8450    0.0000 C.ar    1  UNL1       -0.0160
     33 C           4.2690   -9.3450    0.0000 C.ar    1  UNL1        0.1582
     34 H          10.5432    2.5724    0.0000 H       1  UNL1        0.0265
     35 H          10.9417    3.2627    0.0000 H       1  UNL1        0.0265
     36 H          10.1191    4.7376    0.0000 H       1  UNL1        0.0265
     37 H           9.7206    4.0473    0.0000 H       1  UNL1        0.0265
     38 H           9.2531    3.2376    0.0000 H       1  UNL1        0.0265
     39 H           8.8546    2.5473    0.0000 H       1  UNL1        0.0265
     40 H          11.4092    4.0724    0.0000 H       1  UNL1        0.0265
     41 H          11.8078    4.7627    0.0000 H       1  UNL1        0.0265
     42 H           9.6772    1.0724    0.0000 H       1  UNL1        0.0265
     43 H          10.0757    1.7627    0.0000 H       1  UNL1        0.0265
     44 H          10.9851    6.2376    0.0000 H       1  UNL1        0.0265
     45 H          10.5866    5.5473    0.0000 H       1  UNL1        0.0265
     46 H           8.3871    1.7376    0.0000 H       1  UNL1        0.0265
     47 H           7.9885    1.0473    0.0000 H       1  UNL1        0.0265
     48 H          12.2753    5.5724    0.0000 H       1  UNL1        0.0265
     49 H          12.6738    6.2627    0.0000 H       1  UNL1        0.0265
     50 H           8.8112   -0.4276    0.0000 H       1  UNL1        0.0265
     51 H           9.2097    0.2627    0.0000 H       1  UNL1        0.0265
     52 H          11.8512    7.7376    0.0000 H       1  UNL1        0.0265
     53 H          11.4526    7.0473    0.0000 H       1  UNL1        0.0265
     54 H           7.5210    0.2376    0.0000 H       1  UNL1        0.0265
     55 H           7.1225   -0.4527    0.0000 H       1  UNL1        0.0265
     56 H          13.1413    7.0724    0.0000 H       1  UNL1        0.0265
     57 H          13.5398    7.7627    0.0000 H       1  UNL1        0.0265
     58 H           7.9451   -1.9276    0.0000 H       1  UNL1        0.0265
     59 H           8.3437   -1.2373    0.0000 H       1  UNL1        0.0265
     60 H          12.7172    9.2376    0.0000 H       1  UNL1        0.0265
     61 H          12.3187    8.5473    0.0000 H       1  UNL1        0.0265
     62 H           6.6550   -1.2624    0.0000 H       1  UNL1        0.0266
     63 H           6.2565   -1.9527    0.0000 H       1  UNL1        0.0266
     64 H          14.0073    8.5724    0.0000 H       1  UNL1        0.0265
     65 H          14.4058    9.2627    0.0000 H       1  UNL1        0.0265
     66 H           7.0791   -3.4276    0.0000 H       1  UNL1        0.0298
     67 H           7.4776   -2.7373    0.0000 H       1  UNL1        0.0298
     68 H          13.5832   10.7376    0.0000 H       1  UNL1        0.0263
     69 H          13.1847   10.0473    0.0000 H       1  UNL1        0.0263
     70 H           5.7890   -2.7624    0.0000 H       1  UNL1        0.0697
     71 H           5.3905   -3.4527    0.0000 H       1  UNL1        0.0697
     72 H          14.9713   10.1181    0.0000 H       1  UNL1        0.0230
     73 H          15.1982   10.9650    0.0000 H       1  UNL1        0.0230
     74 H          14.3513   11.1919    0.0000 H       1  UNL1        0.0230
     75 H           5.6720   -6.1550    0.0000 H       1  UNL1        0.0689
     76 H           3.7320   -6.0350    0.0000 H       1  UNL1        0.0626
     77 H           2.8660   -7.5350    0.0000 H       1  UNL1        0.0661
     78 H           5.6720   -7.5350    0.0000 H       1  UNL1        0.0625
     79 H           5.6720   -9.1550    0.0000 H       1  UNL1        0.0655
     80 H           2.0000   -9.0350    0.0000 H       1  UNL1        0.2923
     81 H           4.8059  -10.6550    0.0000 H       1  UNL1        0.2923
@<TRIPOS>BOND
     1     1    23    1
     2     1    25    1
     3     2    25    2
     4     3    31    1
     5     3    80    1
     6     4    33    1
     7     4    81    1
     8     5     6    1
     9     5     7    1
    10     5    34    1
    11     5    35    1
    12     6     8    1
    13     6    36    1
    14     6    37    1
    15     7     9    1
    16     7    38    1
    17     7    39    1
    18     8    10    1
    19     8    40    1
    20     8    41    1
    21     9    11    1
    22     9    42    1
    23     9    43    1
    24    10    12    1
    25    10    44    1
    26    10    45    1
    27    11    13    1
    28    11    46    1
    29    11    47    1
    30    12    14    1
    31    12    48    1
    32    12    49    1
    33    13    15    1
    34    13    50    1
    35    13    51    1
    36    14    16    1
    37    14    52    1
    38    14    53    1
    39    15    17    1
    40    15    54    1
    41    15    55    1
    42    16    18    1
    43    16    56    1
    44    16    57    1
    45    17    19    1
    46    17    58    1
    47    17    59    1
    48    18    20    1
    49    18    60    1
    50    18    61    1
    51    19    21    1
    52    19    62    1
    53    19    63    1
    54    20    22    1
    55    20    64    1
    56    20    65    1
    57    21    23    1
    58    21    66    1
    59    21    67    1
    60    22    24    1
    61    22    68    1
    62    22    69    1
    63    23    70    1
    64    23    71    1
    65    24    72    1
    66    24    73    1
    67    24    74    1
    68    25    26    1
    69    26    27    2
    70    26    75    1
    71    27    28    1
    72    27    76    1
    73    28    29   ar
    74    28    30   ar
    75    29    31   ar
    76    29    77    1
    77    30    32   ar
    78    30    78    1
    79    31    33   ar
    80    32    33   ar
    81    32    79    1
