@<TRIPOS>MOLECULE
IMPHY007760
 28 29 0 0 0
SMALL
GASTEIGER

@<TRIPOS>ATOM
      1 O           6.2619   -0.8724    0.0000 O.3     1  UNL1       -0.3909
      2 O           2.0000    1.6276    0.0000 O.3     1  UNL1       -0.4644
      3 O           3.7320    1.6276    0.0000 O.2     1  UNL1       -0.2449
      4 N           2.0000   -1.3724    0.0000 N.ar    1  UNL1       -0.2622
      5 C           4.6783   -1.6771    0.0000 C.3     1  UNL1        0.0093
      6 C           5.2619   -0.8724    0.0000 C.3     1  UNL1        0.0658
      7 C           4.6783   -0.0676    0.0000 C.3     1  UNL1        0.0002
      8 C           3.7320   -1.3724    0.0000 C.ar    1  UNL1       -0.0200
      9 C           3.7320   -0.3724    0.0000 C.ar    1  UNL1       -0.0245
     10 C           4.9889   -2.6276    0.0000 C.3     1  UNL1       -0.0560
     11 C           2.8660    0.1276    0.0000 C.ar    1  UNL1        0.0805
     12 C           2.8660   -1.8724    0.0000 C.ar    1  UNL1        0.0314
     13 C           2.0000   -0.3724    0.0000 C.ar    1  UNL1        0.0418
     14 C           2.8660    1.1276    0.0000 C.2     1  UNL1        0.3407
     15 C           2.0000    2.6276    0.0000 C.3     1  UNL1        0.0820
     16 H           5.2908   -1.7733    0.0000 H       1  UNL1        0.0372
     17 H           5.5436   -1.4247    0.0000 H       1  UNL1        0.0602
     18 H           5.2156    0.2416    0.0000 H       1  UNL1        0.0339
     19 H           4.4272    0.4993    0.0000 H       1  UNL1        0.0339
     20 H           4.3996   -2.8202    0.0000 H       1  UNL1        0.0236
     21 H           5.1815   -3.2170    0.0000 H       1  UNL1        0.0236
     22 H           5.5783   -2.4350    0.0000 H       1  UNL1        0.0236
     23 H           2.8660   -2.4924    0.0000 H       1  UNL1        0.0832
     24 H           6.5719   -0.3354    0.0000 H       1  UNL1        0.2098
     25 H           1.4631   -0.0624    0.0000 H       1  UNL1        0.0838
     26 H           2.6200    2.6276    0.0000 H       1  UNL1        0.0661
     27 H           2.0000    3.2476    0.0000 H       1  UNL1        0.0661
     28 H           1.3800    2.6276    0.0000 H       1  UNL1        0.0661
@<TRIPOS>BOND
     1     6     1    1
     2     1    24    1
     3     2    14    1
     4     2    15    1
     5     3    14    2
     6     4    12   ar
     7     4    13   ar
     8     5     6    1
     9     5     8    1
    10     5    10    1
    11     5    16    1
    12     6     7    1
    13     6    17    1
    14     7     9    1
    15     7    18    1
    16     7    19    1
    17     8     9   ar
    18     8    12   ar
    19     9    11   ar
    20    10    20    1
    21    10    21    1
    22    10    22    1
    23    11    13   ar
    24    11    14    1
    25    12    23    1
    26    13    25    1
    27    15    26    1
    28    15    27    1
    29    15    28    1
