@<TRIPOS>MOLECULE
IMPHY001903
 39 42 0 0 0
SMALL
GASTEIGER

@<TRIPOS>ATOM
      1 O           6.9006   -2.5327    0.0000 O.2     1  UNL1       -0.4618
      2 O          10.4728   -0.6933    0.0000 O.3     1  UNL1       -0.4489
      3 O          10.4728   -2.3028    0.0000 O.3     1  UNL1       -0.4523
      4 O           8.6605    0.5019    0.0000 O.3     1  UNL1       -0.4905
      5 O           6.9121    0.5365    0.0000 O.2     1  UNL1       -0.2863
      6 O           4.2740    2.0294    0.0000 O.3     1  UNL1       -0.4914
      7 O           2.5381    1.0361    0.0000 O.3     1  UNL1       -0.5033
      8 C           7.7945   -0.9981    0.0000 C.ar    1  UNL1        0.1099
      9 C           7.7945   -1.9981    0.0000 C.ar    1  UNL1        0.1457
     10 C           8.6605   -0.4981    0.0000 C.ar    1  UNL1        0.1797
     11 C           9.5266   -0.9981    0.0000 C.ar    1  UNL1        0.2085
     12 C           9.5266   -1.9981    0.0000 C.ar    1  UNL1        0.1734
     13 C           5.9945   -0.9773    0.0000 C.ar    1  UNL1        0.0645
     14 C           6.9006   -0.4634    0.0000 C.ar    1  UNL1        0.2038
     15 C           8.6605   -2.4981    0.0000 C.ar    1  UNL1        0.0271
     16 C           5.1304   -0.4739    0.0000 C.ar    1  UNL1       -0.0076
     17 C           5.9945   -2.0189    0.0000 C.ar    1  UNL1        0.1038
     18 C          11.0564   -1.4981    0.0000 C.3     1  UNL1        0.2334
     19 C           5.1343    0.5261    0.0000 C.ar    1  UNL1       -0.0084
     20 C           4.2625   -0.9706    0.0000 C.ar    1  UNL1       -0.0501
     21 C           4.2702    1.0294    0.0000 C.ar    1  UNL1        0.1618
     22 C           3.3984   -0.4672    0.0000 C.ar    1  UNL1       -0.0159
     23 C           3.4022    0.5327    0.0000 C.ar    1  UNL1        0.1585
     24 C           9.5266    1.0019    0.0000 C.3     1  UNL1        0.0790
     25 C           3.4099    2.5327    0.0000 C.3     1  UNL1        0.0790
     26 H           8.6605   -3.1181    0.0000 H       1  UNL1        0.0692
     27 H           5.4588   -2.3310    0.0000 H       1  UNL1        0.1037
     28 H          11.5173   -1.9128    0.0000 H       1  UNL1        0.1166
     29 H          11.5173   -1.0833    0.0000 H       1  UNL1        0.1166
     30 H           5.6724    0.8340    0.0000 H       1  UNL1        0.0661
     31 H           4.2601   -1.5906    0.0000 H       1  UNL1        0.0625
     32 H           2.8602   -0.7752    0.0000 H       1  UNL1        0.0655
     33 H           9.8366    0.4650    0.0000 H       1  UNL1        0.0660
     34 H          10.0635    1.3119    0.0000 H       1  UNL1        0.0660
     35 H           9.2166    1.5389    0.0000 H       1  UNL1        0.0660
     36 H           2.0000    0.7282    0.0000 H       1  UNL1        0.2923
     37 H           3.7220    3.0685    0.0000 H       1  UNL1        0.0660
     38 H           2.8742    2.8448    0.0000 H       1  UNL1        0.0660
     39 H           3.0979    1.9970    0.0000 H       1  UNL1        0.0660
@<TRIPOS>BOND
     1     1     9   ar
     2     1    17   ar
     3     2    11    1
     4     2    18    1
     5     3    12    1
     6     3    18    1
     7     4    10    1
     8     4    24    1
     9     5    14    2
    10     6    21    1
    11     6    25    1
    12     7    23    1
    13     7    36    1
    14     8     9   ar
    15     8    10   ar
    16     8    14   ar
    17     9    15   ar
    18    10    11   ar
    19    11    12   ar
    20    12    15   ar
    21    13    14   ar
    22    13    16    1
    23    13    17   ar
    24    15    26    1
    25    16    19   ar
    26    16    20   ar
    27    17    27    1
    28    18    28    1
    29    18    29    1
    30    19    21   ar
    31    19    30    1
    32    20    22   ar
    33    20    31    1
    34    21    23   ar
    35    22    23   ar
    36    22    32    1
    37    24    33    1
    38    24    34    1
    39    24    35    1
    40    25    37    1
    41    25    38    1
    42    25    39    1
