@<TRIPOS>MOLECULE
IMPHY005666
 43 46 0 0 0
SMALL
GASTEIGER

@<TRIPOS>ATOM
      1 N           5.5321   -0.5000    0.0000 N.ar    1  UNL1       -0.2552
      2 C           4.6660   -1.0000    0.0000 C.ar    1  UNL1        0.0536
      3 C           3.8000   -0.5000    0.0000 C.ar    1  UNL1        0.0038
      4 C           3.8000    0.5000    0.0000 C.ar    1  UNL1       -0.0145
      5 C           4.6660   -2.0000    0.0000 C.3     1  UNL1        0.0154
      6 C           5.5321    0.5000    0.0000 C.ar    1  UNL1        0.0465
      7 C           6.3981    1.0000    0.0000 C.3     1  UNL1        0.0148
      8 C           4.6660    1.0000    0.0000 C.ar    1  UNL1       -0.0323
      9 C           5.5321   -2.5000    0.0000 C.ar    1  UNL1       -0.0416
     10 C           2.9061   -1.0347    0.0000 C.ar    1  UNL1       -0.0523
     11 C           6.3981    2.0000    0.0000 C.ar    1  UNL1       -0.0416
     12 C           2.9061    1.0347    0.0000 C.ar    1  UNL1       -0.0539
     13 C           2.0000   -0.5208    0.0000 C.ar    1  UNL1       -0.0611
     14 C           2.0000    0.5208    0.0000 C.ar    1  UNL1       -0.0612
     15 C           5.5321   -3.5000    0.0000 C.ar    1  UNL1       -0.0582
     16 C           6.3981   -2.0000    0.0000 C.ar    1  UNL1       -0.0582
     17 C           7.2641    2.5000    0.0000 C.ar    1  UNL1       -0.0582
     18 C           5.5321    2.5000    0.0000 C.ar    1  UNL1       -0.0582
     19 C           6.3981   -4.0000    0.0000 C.ar    1  UNL1       -0.0615
     20 C           7.2641   -2.5000    0.0000 C.ar    1  UNL1       -0.0615
     21 C           7.2641    3.5000    0.0000 C.ar    1  UNL1       -0.0615
     22 C           5.5321    3.5000    0.0000 C.ar    1  UNL1       -0.0615
     23 C           7.2641   -3.5000    0.0000 C.ar    1  UNL1       -0.0617
     24 C           6.3981    4.0000    0.0000 C.ar    1  UNL1       -0.0617
     25 H           4.0555   -1.8923    0.0000 H       1  UNL1        0.0377
     26 H           4.4540   -2.5826    0.0000 H       1  UNL1        0.0377
     27 H           6.6101    0.4174    0.0000 H       1  UNL1        0.0377
     28 H           7.0087    1.1077    0.0000 H       1  UNL1        0.0377
     29 H           4.6660    1.6200    0.0000 H       1  UNL1        0.0642
     30 H           2.9132   -1.6546    0.0000 H       1  UNL1        0.0624
     31 H           2.9132    1.6546    0.0000 H       1  UNL1        0.0624
     32 H           1.4643   -0.8329    0.0000 H       1  UNL1        0.0618
     33 H           1.4643    0.8329    0.0000 H       1  UNL1        0.0618
     34 H           4.9951   -3.8100    0.0000 H       1  UNL1        0.0620
     35 H           6.3981   -1.3800    0.0000 H       1  UNL1        0.0620
     36 H           7.8010    2.1900    0.0000 H       1  UNL1        0.0620
     37 H           4.9951    2.1900    0.0000 H       1  UNL1        0.0620
     38 H           6.3981   -4.6200    0.0000 H       1  UNL1        0.0618
     39 H           7.8010   -2.1900    0.0000 H       1  UNL1        0.0618
     40 H           7.8010    3.8100    0.0000 H       1  UNL1        0.0618
     41 H           4.9951    3.8100    0.0000 H       1  UNL1        0.0618
     42 H           7.8010   -3.8100    0.0000 H       1  UNL1        0.0618
     43 H           6.3981    4.6200    0.0000 H       1  UNL1        0.0618
@<TRIPOS>BOND
     1     1     2   ar
     2     1     6   ar
     3     2     3   ar
     4     2     5    1
     5     3     4   ar
     6     3    10   ar
     7     4     8   ar
     8     4    12   ar
     9     5     9    1
    10     5    25    1
    11     5    26    1
    12     6     7    1
    13     6     8   ar
    14     7    11    1
    15     7    27    1
    16     7    28    1
    17     8    29    1
    18     9    15   ar
    19     9    16   ar
    20    10    13   ar
    21    10    30    1
    22    11    17   ar
    23    11    18   ar
    24    12    14   ar
    25    12    31    1
    26    13    14   ar
    27    13    32    1
    28    14    33    1
    29    15    19   ar
    30    15    34    1
    31    16    20   ar
    32    16    35    1
    33    17    21   ar
    34    17    36    1
    35    18    22   ar
    36    18    37    1
    37    19    23   ar
    38    19    38    1
    39    20    23   ar
    40    20    39    1
    41    21    24   ar
    42    21    40    1
    43    22    24   ar
    44    22    41    1
    45    23    42    1
    46    24    43    1
