@<TRIPOS>MOLECULE
IMPHY004869
 36 38 0 0 0
SMALL
GASTEIGER

@<TRIPOS>ATOM
      1 O           5.5301   -1.9279    0.0000 O.3     1  UNL1       -0.4900
      2 O           5.5301    1.0721    0.0000 O.2     1  UNL1       -0.2910
      3 O           8.1282   -1.4279    0.0000 O.3     1  UNL1       -0.5064
      4 O           3.7817    1.1067    0.0000 O.3     1  UNL1       -0.5058
      5 O           9.8602    1.5721    0.0000 O.3     1  UNL1       -0.4950
      6 O           2.0000   -1.9521    0.0000 O.3     1  UNL1       -0.5065
      7 C           6.3961   -0.4279    0.0000 C.3     1  UNL1        0.0847
      8 C           6.3961   -1.4279    0.0000 C.3     1  UNL1        0.1036
      9 C           7.2622    0.0721    0.0000 C.ar    1  UNL1        0.0081
     10 C           5.5301    0.0721    0.0000 C.2     1  UNL1        0.1809
     11 C           4.6641   -0.4279    0.0000 C.ar    1  UNL1        0.1012
     12 C           4.6641   -1.4279    0.0000 C.ar    1  UNL1        0.1380
     13 C           8.1282   -0.4279    0.0000 C.ar    1  UNL1        0.1243
     14 C           7.2622    1.0721    0.0000 C.ar    1  UNL1       -0.0509
     15 C           3.7702    0.1067    0.0000 C.ar    1  UNL1        0.1343
     16 C           3.7702   -1.9626    0.0000 C.ar    1  UNL1        0.0225
     17 C           8.9942    0.0721    0.0000 C.ar    1  UNL1        0.0218
     18 C           8.1282    1.5721    0.0000 C.ar    1  UNL1       -0.0194
     19 C           2.8641   -0.4071    0.0000 C.ar    1  UNL1        0.0222
     20 C           2.8641   -1.4487    0.0000 C.ar    1  UNL1        0.1238
     21 C           8.9942    1.0721    0.0000 C.ar    1  UNL1        0.1236
     22 C           9.8602    2.5721    0.0000 C.3     1  UNL1        0.0788
     23 H           6.9331   -0.7379    0.0000 H       1  UNL1        0.0464
     24 H           6.6082   -2.0105    0.0000 H       1  UNL1        0.0707
     25 H           7.0067   -1.3203    0.0000 H       1  UNL1        0.0707
     26 H           6.7252    1.3821    0.0000 H       1  UNL1        0.0623
     27 H           3.7773   -2.5826    0.0000 H       1  UNL1        0.0691
     28 H           9.5312   -0.2379    0.0000 H       1  UNL1        0.0691
     29 H           8.1282    2.1921    0.0000 H       1  UNL1        0.0654
     30 H           2.3284   -0.0950    0.0000 H       1  UNL1        0.0691
     31 H           8.6651   -1.7379    0.0000 H       1  UNL1        0.2921
     32 H           3.2484    1.4229    0.0000 H       1  UNL1        0.2922
     33 H           2.0024   -2.5721    0.0000 H       1  UNL1        0.2921
     34 H          10.4803    2.5721    0.0000 H       1  UNL1        0.0660
     35 H           9.8602    3.1921    0.0000 H       1  UNL1        0.0660
     36 H           9.2402    2.5721    0.0000 H       1  UNL1        0.0660
@<TRIPOS>BOND
     1     1     8    1
     2     1    12    1
     3     2    10    2
     4     3    13    1
     5     3    31    1
     6     4    15    1
     7     4    32    1
     8     5    21    1
     9     5    22    1
    10     6    20    1
    11     6    33    1
    12     7     8    1
    13     7     9    1
    14     7    10    1
    15     7    23    1
    16     8    24    1
    17     8    25    1
    18     9    13   ar
    19     9    14   ar
    20    10    11    1
    21    11    12   ar
    22    11    15   ar
    23    12    16   ar
    24    13    17   ar
    25    14    18   ar
    26    14    26    1
    27    15    19   ar
    28    16    20   ar
    29    16    27    1
    30    17    21   ar
    31    17    28    1
    32    18    21   ar
    33    18    29    1
    34    19    20   ar
    35    19    30    1
    36    22    34    1
    37    22    35    1
    38    22    36    1
