@<TRIPOS>MOLECULE
IMPHY013184
 92 96 0 0 0
SMALL
GASTEIGER

@<TRIPOS>ATOM
      1 O           3.7320   -1.2952    0.0000 O.3     1  UNL1       -0.4609
      2 O           5.5463   -3.0731    0.0000 O.3     1  UNL1       -0.4641
      3 O          12.6571    1.7913    0.0000 O.3     1  UNL1       -0.4802
      4 O          11.8027    0.2846    0.0000 O.2     1  UNL1       -0.2504
      5 O           2.8718    0.2081    0.0000 O.2     1  UNL1       -0.2512
      6 O           4.0496   -3.9449    0.0000 O.2     1  UNL1       -0.2512
      7 C           8.2591    0.2571    0.0000 C.3     1  UNL1       -0.0194
      8 C           7.3931    0.7571    0.0000 C.3     1  UNL1       -0.0257
      9 C           6.4831    0.2503    0.0000 C.3     1  UNL1       -0.0248
     10 C           9.1251    0.7571    0.0000 C.3     1  UNL1       -0.0051
     11 C           6.4750   -0.7913    0.0000 C.3     1  UNL1       -0.0234
     12 C           8.2752   -0.7844    0.0000 C.3     1  UNL1       -0.0463
     13 C           5.5396   -1.3411    0.0000 C.3     1  UNL1        0.0423
     14 C           7.3771   -1.3122    0.0000 C.3     1  UNL1       -0.0485
     15 C           9.1251    1.7571    0.0000 C.2     1  UNL1       -0.0629
     16 C          10.0191    2.2918    0.0000 C.3     1  UNL1       -0.0031
     17 C           7.3931    1.7571    0.0000 C.3     1  UNL1       -0.0306
     18 C           5.5562    0.8143    0.0000 C.3     1  UNL1       -0.0437
     19 C          10.0191    0.2224    0.0000 C.3     1  UNL1       -0.0424
     20 C          10.9251    1.7779    0.0000 C.3     1  UNL1        0.0741
     21 C           8.9019   -0.5089    0.0000 C.3     1  UNL1       -0.0585
     22 C          10.9251    0.7363    0.0000 C.3     1  UNL1       -0.0359
     23 C           4.6000   -0.7986    0.0000 C.3     1  UNL1        0.1118
     24 C           6.4908    1.2502    0.0000 C.3     1  UNL1       -0.0590
     25 C           8.2591    2.2571    0.0000 C.2     1  UNL1       -0.0836
     26 C           4.6084    0.2864    0.0000 C.3     1  UNL1       -0.0145
     27 C           9.4672   -0.1826    0.0000 C.3     1  UNL1       -0.0553
     28 C           9.9940    3.3765    0.0000 C.3     1  UNL1       -0.0403
     29 C          11.8689    2.3132    0.0000 C.3     1  UNL1       -0.0362
     30 C          10.9251    3.9334    0.0000 C.3     1  UNL1       -0.0343
     31 C           5.0430   -2.2090    0.0000 C.3     1  UNL1        0.1014
     32 C           6.0430   -2.2052    0.0000 C.3     1  UNL1       -0.0528
     33 C          11.8689    3.3982    0.0000 C.3     1  UNL1       -0.0468
     34 C          11.7950    1.2846    0.0000 C.2     1  UNL1        0.3115
     35 C          11.4151    4.8051    0.0000 C.3     1  UNL1       -0.0598
     36 C          10.4152    4.7936    0.0000 C.3     1  UNL1       -0.0598
     37 C           2.8680   -0.7919    0.0000 C.2     1  UNL1        0.3042
     38 C           5.0496   -3.9410    0.0000 C.2     1  UNL1        0.3040
     39 C           2.0000   -1.2886    0.0000 C.3     1  UNL1        0.0332
     40 C           5.5530   -4.8051    0.0000 C.3     1  UNL1        0.0332
     41 H           8.1292    1.1821    0.0000 H       1  UNL1        0.0315
     42 H           6.4783   -1.6413    0.0000 H       1  UNL1        0.0314
     43 H           8.4932   -1.3648    0.0000 H       1  UNL1        0.0271
     44 H           8.8843   -0.6689    0.0000 H       1  UNL1        0.0271
     45 H           6.9798   -1.7881    0.0000 H       1  UNL1        0.0268
     46 H           7.7781   -1.7850    0.0000 H       1  UNL1        0.0268
     47 H          10.7485    2.7281    0.0000 H       1  UNL1        0.0357
     48 H           7.1810    2.3397    0.0000 H       1  UNL1        0.0310
     49 H           6.7825    1.6494    0.0000 H       1  UNL1        0.0310
     50 H           5.9644    1.2810    0.0000 H       1  UNL1        0.0272
     51 H           5.1663    1.2964    0.0000 H       1  UNL1        0.0272
     52 H           9.6145   -0.2473    0.0000 H       1  UNL1        0.0274
     53 H          10.4127   -0.2566    0.0000 H       1  UNL1        0.0274
     54 H           8.4269   -0.9075    0.0000 H       1  UNL1        0.0235
     55 H           9.3004   -0.9839    0.0000 H       1  UNL1        0.0235
     56 H           9.3768   -0.1104    0.0000 H       1  UNL1        0.0235
     57 H          11.1342    0.1526    0.0000 H       1  UNL1        0.0276
     58 H          11.5360    0.8424    0.0000 H       1  UNL1        0.0276
     59 H           4.0648   -0.4855    0.0000 H       1  UNL1        0.0740
     60 H           7.1108    1.2454    0.0000 H       1  UNL1        0.0235
     61 H           6.4956    1.8702    0.0000 H       1  UNL1        0.0235
     62 H           5.8708    1.2550    0.0000 H       1  UNL1        0.0235
     63 H           8.2591    2.8771    0.0000 H       1  UNL1        0.0572
     64 H           4.4038    0.8717    0.0000 H       1  UNL1        0.0301
     65 H           3.9967    0.1850    0.0000 H       1  UNL1        0.0301
     66 H           8.8846   -0.3947    0.0000 H       1  UNL1        0.0238
     67 H           9.6794   -0.7651    0.0000 H       1  UNL1        0.0238
     68 H          10.0498    0.0296    0.0000 H       1  UNL1        0.0238
     69 H           9.7715    3.9552    0.0000 H       1  UNL1        0.0276
     70 H           9.3857    3.2563    0.0000 H       1  UNL1        0.0276
     71 H          12.0780    1.7295    0.0000 H       1  UNL1        0.0276
     72 H          12.4798    2.4192    0.0000 H       1  UNL1        0.0276
     73 H           4.5665   -1.8123    0.0000 H       1  UNL1        0.0704
     74 H           4.5695   -2.6094    0.0000 H       1  UNL1        0.0704
     75 H           5.5072   -2.5172    0.0000 H       1  UNL1        0.0237
     76 H           6.3550   -2.7409    0.0000 H       1  UNL1        0.0237
     77 H           6.5787   -1.8931    0.0000 H       1  UNL1        0.0237
     78 H          12.4798    3.2921    0.0000 H       1  UNL1        0.0271
     79 H          12.0780    3.9818    0.0000 H       1  UNL1        0.0271
     80 H          11.9556    4.5014    0.0000 H       1  UNL1        0.0235
     81 H          11.7189    5.3456    0.0000 H       1  UNL1        0.0235
     82 H          10.8746    5.1089    0.0000 H       1  UNL1        0.0235
     83 H          10.9485    5.1098    0.0000 H       1  UNL1        0.0235
     84 H          10.0990    5.3269    0.0000 H       1  UNL1        0.0235
     85 H           9.8818    4.4774    0.0000 H       1  UNL1        0.0235
     86 H          13.1964    1.4854    0.0000 H       1  UNL1        0.2951
     87 H           1.6921   -0.7504    0.0000 H       1  UNL1        0.0342
     88 H           1.4619   -1.5965    0.0000 H       1  UNL1        0.0342
     89 H           2.3079   -1.8267    0.0000 H       1  UNL1        0.0342
     90 H           5.0172   -5.1172    0.0000 H       1  UNL1        0.0342
     91 H           5.8650   -5.3409    0.0000 H       1  UNL1        0.0342
     92 H           6.0887   -4.4931    0.0000 H       1  UNL1        0.0342
@<TRIPOS>BOND
     1    23     1    1
     2     1    37    1
     3     2    31    1
     4     2    38    1
     5     3    34    1
     6     3    86    1
     7     4    34    2
     8     5    37    2
     9     6    38    2
    10     7     8    1
    11     7    10    1
    12     7    12    1
    13     7    21    1
    14     8     9    1
    15     8    17    1
    16     8    41    1
    17     9    11    1
    18     9    18    1
    19     9    24    1
    20    10    15    1
    21    10    19    1
    22    10    27    1
    23    11    13    1
    24    11    14    1
    25    11    42    1
    26    12    14    1
    27    12    43    1
    28    12    44    1
    29    13    23    1
    30    13    31    1
    31    13    32    1
    32    14    45    1
    33    14    46    1
    34    15    16    1
    35    15    25    2
    36    16    20    1
    37    16    28    1
    38    16    47    1
    39    17    25    1
    40    17    48    1
    41    17    49    1
    42    18    26    1
    43    18    50    1
    44    18    51    1
    45    19    22    1
    46    19    52    1
    47    19    53    1
    48    20    22    1
    49    20    29    1
    50    20    34    1
    51    21    54    1
    52    21    55    1
    53    21    56    1
    54    22    57    1
    55    22    58    1
    56    23    26    1
    57    23    59    1
    58    24    60    1
    59    24    61    1
    60    24    62    1
    61    25    63    1
    62    26    64    1
    63    26    65    1
    64    27    66    1
    65    27    67    1
    66    27    68    1
    67    28    30    1
    68    28    69    1
    69    28    70    1
    70    29    33    1
    71    29    71    1
    72    29    72    1
    73    30    33    1
    74    30    35    1
    75    30    36    1
    76    31    73    1
    77    31    74    1
    78    32    75    1
    79    32    76    1
    80    32    77    1
    81    33    78    1
    82    33    79    1
    83    35    80    1
    84    35    81    1
    85    35    82    1
    86    36    83    1
    87    36    84    1
    88    36    85    1
    89    37    39    1
    90    38    40    1
    91    39    87    1
    92    39    88    1
    93    39    89    1
    94    40    90    1
    95    40    91    1
    96    40    92    1
