@<TRIPOS>MOLECULE
IMPHY003203
 18 17 0 0 0
SMALL
GASTEIGER

@<TRIPOS>ATOM
      1 S1          2.8660   -0.7500    0.0000 S.3     1  <1>        -0.0913
      2 S2          2.8660   -1.7500    0.0000 S.3     1  <1>        -0.0965
      3 O1          5.4641    0.7500    0.0000 O.3     1  <1>        -0.4795
      4 O2          4.5981    2.2500    0.0000 O.2     1  <1>        -0.2492
      5 N1          2.8660    1.2500    0.0000 N.3     1  <1>        -0.3177
      6 C1          3.7320    0.7500    0.0000 C.3     1  <1>         0.1131
      7 C2          3.7320   -0.2500    0.0000 C.3     1  <1>         0.0295
      8 C3          4.5981    1.2500    0.0000 C.2     1  <1>         0.3226
      9 C4          2.0000   -2.2500    0.0000 C.3     1  <1>        -0.0078
     10 H1          3.7320    1.3700    0.0000 H       1  <1>         0.0582
     11 H2          3.9441   -0.8326    0.0000 H       1  <1>         0.0405
     12 H3          4.3426   -0.1423    0.0000 H       1  <1>         0.0405
     13 H4          2.3291    0.9400    0.0000 H       1  <1>         0.1190
     14 H5          2.8660    1.8700    0.0000 H       1  <1>         0.1190
     15 H6          6.0010    1.0600    0.0000 H       1  <1>         0.2951
     16 H7          1.6900   -1.7131    0.0000 H       1  <1>         0.0349
     17 H8          1.4631   -2.5600    0.0000 H       1  <1>         0.0349
     18 H9          2.3100   -2.7869    0.0000 H       1  <1>         0.0349
@<TRIPOS>BOND
     1     1     2    1
     2     1     7    1
     3     2     9    1
     4     3     8    1
     5     3    15    1
     6     4     8    2
     7     6     5    1
     8     5    13    1
     9     5    14    1
    10     6     7    1
    11     6     8    1
    12     6    10    1
    13     7    11    1
    14     7    12    1
    15     9    16    1
    16     9    17    1
    17     9    18    1
