@<TRIPOS>MOLECULE
IMPHY017414
 35 34 0 0 0
SMALL
GASTEIGER

@<TRIPOS>ATOM
      1 O           3.7320    0.4400    0.0000 O.3     1  UNL1       -0.3760
      2 C           7.1962    0.4400    0.0000 C.3     1  UNL1       -0.0285
      3 C           8.0622   -0.0600    0.0000 C.3     1  UNL1       -0.0308
      4 C           6.3301   -0.0600    0.0000 C.2     1  UNL1       -0.0741
      5 C           8.9282    0.4400    0.0000 C.2     1  UNL1       -0.0850
      6 C           5.4641    0.4400    0.0000 C.2     1  UNL1       -0.0597
      7 C           6.3301   -1.0600    0.0000 C.3     1  UNL1       -0.0437
      8 C           9.7942   -0.0600    0.0000 C.2     1  UNL1       -0.0796
      9 C           4.5981   -0.0600    0.0000 C.3     1  UNL1        0.0661
     10 C          10.6603    0.4400    0.0000 C.3     1  UNL1       -0.0440
     11 C           9.7942   -1.0600    0.0000 C.3     1  UNL1       -0.0440
     12 C           2.8660   -0.0600    0.0000 C.3     1  UNL1        0.0452
     13 C           2.0000    0.4400    0.0000 C.3     1  UNL1       -0.0416
     14 H           7.5947    0.9149    0.0000 H       1  UNL1        0.0313
     15 H           6.7976    0.9149    0.0000 H       1  UNL1        0.0313
     16 H           7.6636   -0.5349    0.0000 H       1  UNL1        0.0310
     17 H           8.4607   -0.5349    0.0000 H       1  UNL1        0.0310
     18 H           8.9282    1.0600    0.0000 H       1  UNL1        0.0572
     19 H           5.4641    1.0600    0.0000 H       1  UNL1        0.0594
     20 H           5.7101   -1.0600    0.0000 H       1  UNL1        0.0274
     21 H           6.3301   -1.6800    0.0000 H       1  UNL1        0.0274
     22 H           6.9501   -1.0600    0.0000 H       1  UNL1        0.0274
     23 H           4.1996   -0.5349    0.0000 H       1  UNL1        0.0604
     24 H           4.9966   -0.5349    0.0000 H       1  UNL1        0.0604
     25 H          10.9703   -0.0969    0.0000 H       1  UNL1        0.0274
     26 H          11.1972    0.7500    0.0000 H       1  UNL1        0.0274
     27 H          10.3503    0.9769    0.0000 H       1  UNL1        0.0274
     28 H           9.1742   -1.0600    0.0000 H       1  UNL1        0.0274
     29 H           9.7942   -1.6800    0.0000 H       1  UNL1        0.0274
     30 H          10.4142   -1.0600    0.0000 H       1  UNL1        0.0274
     31 H           2.4675   -0.5349    0.0000 H       1  UNL1        0.0557
     32 H           3.2646   -0.5349    0.0000 H       1  UNL1        0.0557
     33 H           2.3100    0.9769    0.0000 H       1  UNL1        0.0252
     34 H           1.4631    0.7500    0.0000 H       1  UNL1        0.0252
     35 H           1.6900   -0.0969    0.0000 H       1  UNL1        0.0252
@<TRIPOS>BOND
     1     1     9    1
     2     1    12    1
     3     2     3    1
     4     2     4    1
     5     2    14    1
     6     2    15    1
     7     3     5    1
     8     3    16    1
     9     3    17    1
    10     4     6    2
    11     4     7    1
    12     5     8    2
    13     5    18    1
    14     6     9    1
    15     6    19    1
    16     7    20    1
    17     7    21    1
    18     7    22    1
    19     8    10    1
    20     8    11    1
    21     9    23    1
    22     9    24    1
    23    10    25    1
    24    10    26    1
    25    10    27    1
    26    11    28    1
    27    11    29    1
    28    11    30    1
    29    12    13    1
    30    12    31    1
    31    12    32    1
    32    13    33    1
    33    13    34    1
    34    13    35    1
