@<TRIPOS>MOLECULE
IMPHY000373
 78 81 0 0 0
SMALL
GASTEIGER

@<TRIPOS>ATOM
      1 O           6.0010   -2.7500    0.0000 O.3     1  UNL1       -0.3389
      2 O           6.0010    0.2500    0.0000 O.3     1  UNL1       -0.3394
      3 O           4.2690   -2.7500    0.0000 O.3     1  UNL1       -0.3431
      4 O           7.7331   -1.7500    0.0000 O.3     1  UNL1       -0.4528
      5 O           4.2690    0.2500    0.0000 O.3     1  UNL1       -0.3484
      6 O           4.2690   -1.7500    0.0000 O.3     1  UNL1       -0.3841
      7 O           6.0010   -4.7500    0.0000 O.3     1  UNL1       -0.3841
      8 O           4.2690   -5.7500    0.0000 O.3     1  UNL1       -0.3864
      9 O           2.5369   -4.7500    0.0000 O.3     1  UNL1       -0.3866
     10 O           7.7331    1.2500    0.0000 O.3     1  UNL1       -0.3923
     11 O           8.5991   -0.2500    0.0000 O.2     1  UNL1       -0.2456
     12 O           3.4030    5.7500    0.0000 O.3     1  UNL1       -0.5068
     13 O          13.7953   -3.2500    0.0000 O.3     1  UNL1       -0.5068
     14 C           6.0010   -1.7500    0.0000 C.3     1  UNL1        0.1316
     15 C           6.8671   -1.2500    0.0000 C.3     1  UNL1        0.1602
     16 C           5.1350   -1.2500    0.0000 C.3     1  UNL1        0.1355
     17 C           6.8671   -0.2500    0.0000 C.3     1  UNL1        0.1240
     18 C           5.1350   -3.2500    0.0000 C.3     1  UNL1        0.1884
     19 C           5.1350   -4.2500    0.0000 C.3     1  UNL1        0.1341
     20 C           5.1350   -0.2500    0.0000 C.3     1  UNL1        0.1880
     21 C           4.2690   -4.7500    0.0000 C.3     1  UNL1        0.1140
     22 C           3.4030   -4.2500    0.0000 C.3     1  UNL1        0.1095
     23 C           3.4030   -3.2500    0.0000 C.3     1  UNL1        0.0873
     24 C           7.7331    0.2500    0.0000 C.3     1  UNL1        0.0741
     25 C           2.5369   -2.7500    0.0000 C.3     1  UNL1       -0.0361
     26 C           4.2690    1.2500    0.0000 C.3     1  UNL1        0.0547
     27 C           8.5991   -1.2500    0.0000 C.2     1  UNL1        0.3324
     28 C           3.4030    1.7500    0.0000 C.3     1  UNL1       -0.0040
     29 C           9.4651   -1.7500    0.0000 C.2     1  UNL1        0.0231
     30 C           3.4030    2.7500    0.0000 C.ar    1  UNL1       -0.0450
     31 C          10.3312   -1.2500    0.0000 C.2     1  UNL1       -0.0478
     32 C           4.2690    3.2500    0.0000 C.ar    1  UNL1       -0.0551
     33 C           2.5369    3.2500    0.0000 C.ar    1  UNL1       -0.0551
     34 C           4.2690    4.2500    0.0000 C.ar    1  UNL1       -0.0199
     35 C           2.5369    4.2500    0.0000 C.ar    1  UNL1       -0.0199
     36 C          11.1972   -1.7500    0.0000 C.ar    1  UNL1       -0.0246
     37 C           3.4030    4.7500    0.0000 C.ar    1  UNL1        0.1169
     38 C          11.1972   -2.7500    0.0000 C.ar    1  UNL1       -0.0511
     39 C          12.0632   -1.2500    0.0000 C.ar    1  UNL1       -0.0511
     40 C          12.0632   -3.2500    0.0000 C.ar    1  UNL1       -0.0196
     41 C          12.9292   -1.7500    0.0000 C.ar    1  UNL1       -0.0196
     42 C          12.9292   -2.7500    0.0000 C.ar    1  UNL1        0.1169
     43 H           6.5380   -2.0600    0.0000 H       1  UNL1        0.0663
     44 H           7.4040   -0.9400    0.0000 H       1  UNL1        0.0788
     45 H           5.1350   -1.8700    0.0000 H       1  UNL1        0.0671
     46 H           6.8671    0.3700    0.0000 H       1  UNL1        0.0658
     47 H           5.1350   -2.6300    0.0000 H       1  UNL1        0.0938
     48 H           5.1350   -4.8700    0.0000 H       1  UNL1        0.0671
     49 H           5.1350    0.3700    0.0000 H       1  UNL1        0.0937
     50 H           3.7320   -5.0600    0.0000 H       1  UNL1        0.0648
     51 H           2.8660   -3.9400    0.0000 H       1  UNL1        0.0646
     52 H           3.4030   -2.6300    0.0000 H       1  UNL1        0.0621
     53 H           7.9451   -0.3326    0.0000 H       1  UNL1        0.0584
     54 H           8.3437    0.3577    0.0000 H       1  UNL1        0.0584
     55 H           2.8469   -2.2131    0.0000 H       1  UNL1        0.0255
     56 H           2.0000   -2.4400    0.0000 H       1  UNL1        0.0255
     57 H           2.2269   -3.2869    0.0000 H       1  UNL1        0.0255
     58 H           3.7320   -1.4400    0.0000 H       1  UNL1        0.2101
     59 H           6.0010   -5.3700    0.0000 H       1  UNL1        0.2101
     60 H           3.7320   -6.0600    0.0000 H       1  UNL1        0.2100
     61 H           2.0000   -4.4400    0.0000 H       1  UNL1        0.2100
     62 H           4.8796    1.1423    0.0000 H       1  UNL1        0.0564
     63 H           4.4810    1.8326    0.0000 H       1  UNL1        0.0564
     64 H           8.2700    1.5600    0.0000 H       1  UNL1        0.2095
     65 H           2.7924    1.8577    0.0000 H       1  UNL1        0.0335
     66 H           3.1909    1.1674    0.0000 H       1  UNL1        0.0335
     67 H           9.4651   -2.3700    0.0000 H       1  UNL1        0.0689
     68 H          10.3312   -0.6300    0.0000 H       1  UNL1        0.0626
     69 H           4.8059    2.9400    0.0000 H       1  UNL1        0.0621
     70 H           2.0000    2.9400    0.0000 H       1  UNL1        0.0621
     71 H           4.8059    4.5600    0.0000 H       1  UNL1        0.0654
     72 H           2.0000    4.5600    0.0000 H       1  UNL1        0.0654
     73 H          10.6603   -3.0600    0.0000 H       1  UNL1        0.0625
     74 H          12.0632   -0.6300    0.0000 H       1  UNL1        0.0625
     75 H          12.0632   -3.8700    0.0000 H       1  UNL1        0.0654
     76 H          13.4662   -1.4400    0.0000 H       1  UNL1        0.0654
     77 H           2.8660    6.0600    0.0000 H       1  UNL1        0.2921
     78 H          14.3322   -2.9400    0.0000 H       1  UNL1        0.2921
@<TRIPOS>BOND
     1    14     1    1
     2    18     1    1
     3     2    17    1
     4     2    20    1
     5     3    18    1
     6     3    23    1
     7    15     4    1
     8     4    27    1
     9    20     5    1
    10     5    26    1
    11    16     6    1
    12     6    58    1
    13    19     7    1
    14     7    59    1
    15    21     8    1
    16     8    60    1
    17    22     9    1
    18     9    61    1
    19    10    24    1
    20    10    64    1
    21    11    27    2
    22    12    37    1
    23    12    77    1
    24    13    42    1
    25    13    78    1
    26    14    15    1
    27    14    16    1
    28    14    43    1
    29    15    17    1
    30    15    44    1
    31    16    20    1
    32    16    45    1
    33    17    24    1
    34    17    46    1
    35    18    19    1
    36    18    47    1
    37    19    21    1
    38    19    48    1
    39    20    49    1
    40    21    22    1
    41    21    50    1
    42    22    23    1
    43    22    51    1
    44    23    25    1
    45    23    52    1
    46    24    53    1
    47    24    54    1
    48    25    55    1
    49    25    56    1
    50    25    57    1
    51    26    28    1
    52    26    62    1
    53    26    63    1
    54    27    29    1
    55    28    30    1
    56    28    65    1
    57    28    66    1
    58    29    31    2
    59    29    67    1
    60    30    32   ar
    61    30    33   ar
    62    31    36    1
    63    31    68    1
    64    32    34   ar
    65    32    69    1
    66    33    35   ar
    67    33    70    1
    68    34    37   ar
    69    34    71    1
    70    35    37   ar
    71    35    72    1
    72    36    38   ar
    73    36    39   ar
    74    38    40   ar
    75    38    73    1
    76    39    41   ar
    77    39    74    1
    78    40    42   ar
    79    40    75    1
    80    41    42   ar
    81    41    76    1
