@<TRIPOS>MOLECULE
IMPHY015164
 39 39 0 0 0
SMALL
GASTEIGER

@<TRIPOS>ATOM
      1 C           6.1270    0.4911    0.0000 C.3     1  UNL1       -0.0166
      2 C           5.9847   -0.4987    0.0000 C.3     1  UNL1       -0.0407
      3 C           5.3299   -1.2545    0.0000 C.3     1  UNL1       -0.0312
      4 C           6.9131   -0.1271    0.0000 C.3     1  UNL1       -0.0563
      5 C           7.0367    0.9065    0.0000 C.3     1  UNL1       -0.0563
      6 C           5.7116    1.4007    0.0000 C.2     1  UNL1       -0.0820
      7 C           4.3704   -1.5362    0.0000 C.2     1  UNL1       -0.0762
      8 C           4.8704    1.9414    0.0000 C.2     1  UNL1       -0.0834
      9 C           3.8704    1.9414    0.0000 C.3     1  UNL1       -0.0138
     10 C           3.4109   -1.2545    0.0000 C.2     1  UNL1       -0.0813
     11 C           2.7560   -0.4987    0.0000 C.3     1  UNL1       -0.0160
     12 C           3.0291    1.4007    0.0000 C.2     1  UNL1       -0.0725
     13 C           4.3704   -2.5362    0.0000 C.3     1  UNL1       -0.0438
     14 C           2.6137    0.4911    0.0000 C.2     1  UNL1       -0.0810
     15 C           2.2734    2.0556    0.0000 C.3     1  UNL1       -0.0435
     16 H           6.2947   -1.0357    0.0000 H       1  UNL1        0.0276
     17 H           5.4207   -0.2412    0.0000 H       1  UNL1        0.0276
     18 H           5.3004   -1.8738    0.0000 H       1  UNL1        0.0310
     19 H           4.9946   -0.7329    0.0000 H       1  UNL1        0.0310
     20 H           6.5298   -0.6144    0.0000 H       1  UNL1        0.0238
     21 H           7.4004   -0.5103    0.0000 H       1  UNL1        0.0238
     22 H           7.2963    0.3603    0.0000 H       1  UNL1        0.0238
     23 H           7.2942    0.3425    0.0000 H       1  UNL1        0.0238
     24 H           7.6006    1.1640    0.0000 H       1  UNL1        0.0238
     25 H           6.7791    1.4705    0.0000 H       1  UNL1        0.0238
     26 H           6.1802    1.8067    0.0000 H       1  UNL1        0.0574
     27 H           5.0450    2.5362    0.0000 H       1  UNL1        0.0572
     28 H           4.0731    2.5272    0.0000 H       1  UNL1        0.0352
     29 H           4.0450    1.3465    0.0000 H       1  UNL1        0.0352
     30 H           3.0757   -1.7761    0.0000 H       1  UNL1        0.0575
     31 H           2.1472   -0.3814    0.0000 H       1  UNL1        0.0350
     32 H           3.3200   -0.2412    0.0000 H       1  UNL1        0.0350
     33 H           3.7504   -2.5362    0.0000 H       1  UNL1        0.0274
     34 H           4.3704   -3.1562    0.0000 H       1  UNL1        0.0274
     35 H           4.9904   -2.5362    0.0000 H       1  UNL1        0.0274
     36 H           2.0000    0.5793    0.0000 H       1  UNL1        0.0575
     37 H           2.6794    2.5241    0.0000 H       1  UNL1        0.0274
     38 H           1.8048    2.4616    0.0000 H       1  UNL1        0.0274
     39 H           1.8673    1.5870    0.0000 H       1  UNL1        0.0274
@<TRIPOS>BOND
     1     1     2    1
     2     1     4    1
     3     1     5    1
     4     1     6    1
     5     2     3    1
     6     2    16    1
     7     2    17    1
     8     3     7    1
     9     3    18    1
    10     3    19    1
    11     4    20    1
    12     4    21    1
    13     4    22    1
    14     5    23    1
    15     5    24    1
    16     5    25    1
    17     6     8    2
    18     6    26    1
    19     7    10    2
    20     7    13    1
    21     8     9    1
    22     8    27    1
    23     9    12    1
    24     9    28    1
    25     9    29    1
    26    10    11    1
    27    10    30    1
    28    11    14    1
    29    11    31    1
    30    11    32    1
    31    12    14    2
    32    12    15    1
    33    13    33    1
    34    13    34    1
    35    13    35    1
    36    14    36    1
    37    15    37    1
    38    15    38    1
    39    15    39    1
