@<TRIPOS>MOLECULE
IMPHY006916
 28 29 0 0 0
SMALL
GASTEIGER

@<TRIPOS>ATOM
      1 O           7.5673    2.6675    0.0000 O.3     1  UNL1       -0.4806
      2 O           7.9244    0.9726    0.0000 O.2     1  UNL1       -0.2510
      3 N           4.6783   -2.2060    0.0000 N.ar    1  UNL1       -0.3604
      4 C           4.9889    0.3540    0.0000 C.3     1  UNL1       -0.0252
      5 C           4.6783   -0.5965    0.0000 C.ar    1  UNL1       -0.0223
      6 C           3.7320   -0.9013    0.0000 C.ar    1  UNL1        0.0028
      7 C           5.9674    0.5602    0.0000 C.3     1  UNL1       -0.0389
      8 C           3.7320   -1.9013    0.0000 C.ar    1  UNL1        0.0467
      9 C           5.2619   -1.4013    0.0000 C.ar    1  UNL1        0.0059
     10 C           6.2781    1.5107    0.0000 C.3     1  UNL1        0.0451
     11 C           2.8660   -0.4013    0.0000 C.ar    1  UNL1       -0.0523
     12 C           2.8660   -2.4013    0.0000 C.ar    1  UNL1       -0.0378
     13 C           2.0000   -0.9013    0.0000 C.ar    1  UNL1       -0.0611
     14 C           2.0000   -1.9013    0.0000 C.ar    1  UNL1       -0.0598
     15 C           7.2566    1.7169    0.0000 C.2     1  UNL1        0.3047
     16 H           4.9684    0.9736    0.0000 H       1  UNL1        0.0314
     17 H           4.3751    0.4413    0.0000 H       1  UNL1        0.0314
     18 H           5.9880   -0.0595    0.0000 H       1  UNL1        0.0274
     19 H           6.5812    0.4729    0.0000 H       1  UNL1        0.0274
     20 H           5.8819   -1.4013    0.0000 H       1  UNL1        0.0810
     21 H           6.2575    2.1304    0.0000 H       1  UNL1        0.0378
     22 H           5.6643    1.5981    0.0000 H       1  UNL1        0.0378
     23 H           4.8709   -2.7953    0.0000 H       1  UNL1        0.1653
     24 H           2.8660    0.2187    0.0000 H       1  UNL1        0.0624
     25 H           2.8660   -3.0213    0.0000 H       1  UNL1        0.0638
     26 H           1.4631   -0.5913    0.0000 H       1  UNL1        0.0618
     27 H           1.4631   -2.2113    0.0000 H       1  UNL1        0.0618
     28 H           8.1739    2.7953    0.0000 H       1  UNL1        0.2951
@<TRIPOS>BOND
     1     1    15    1
     2     1    28    1
     3     2    15    2
     4     3     8   ar
     5     3     9   ar
     6     3    23    1
     7     4     5    1
     8     4     7    1
     9     4    16    1
    10     4    17    1
    11     5     6   ar
    12     5     9   ar
    13     6     8   ar
    14     6    11   ar
    15     7    10    1
    16     7    18    1
    17     7    19    1
    18     8    12   ar
    19     9    20    1
    20    10    15    1
    21    10    21    1
    22    10    22    1
    23    11    13   ar
    24    11    24    1
    25    12    14   ar
    26    12    25    1
    27    13    14   ar
    28    13    26    1
    29    14    27    1
