@<TRIPOS>MOLECULE
IMPHY002821
 34 35 0 0 0
SMALL
GASTEIGER

@<TRIPOS>ATOM
      1 CL          2.0000    0.9416    0.0000 Cl      1  UNL1       -0.1251
      2 O           7.5870   -1.8137    0.0000 O.3     1  UNL1       -0.3865
      3 O           7.5870    1.6968    0.0000 O.2     1  UNL1       -0.2917
      4 C           7.8600   -0.0584    0.0000 C.3     1  UNL1        0.0494
      5 C           7.2764   -0.8632    0.0000 C.3     1  UNL1        0.0904
      6 C           6.3301   -0.5584    0.0000 C.ar    1  UNL1       -0.0075
      7 C           6.3301    0.4416    0.0000 C.ar    1  UNL1        0.0266
      8 C           7.2764    0.7463    0.0000 C.2     1  UNL1        0.1693
      9 C           5.4641    0.9416    0.0000 C.ar    1  UNL1       -0.0362
     10 C           4.5981    0.4416    0.0000 C.ar    1  UNL1       -0.0398
     11 C           5.4641   -1.0584    0.0000 C.ar    1  UNL1       -0.0522
     12 C           4.5981   -0.5584    0.0000 C.ar    1  UNL1       -0.0466
     13 C           8.8600   -0.0584    0.0000 C.3     1  UNL1       -0.0526
     14 C           3.7320    0.9416    0.0000 C.3     1  UNL1       -0.0137
     15 C           5.4641    1.9416    0.0000 C.3     1  UNL1       -0.0388
     16 C           3.7320   -1.0584    0.0000 C.3     1  UNL1       -0.0394
     17 C           2.8660    0.4416    0.0000 C.3     1  UNL1        0.0266
     18 H           8.1417   -0.6107    0.0000 H       1  UNL1        0.0407
     19 H           6.8389   -1.3025    0.0000 H       1  UNL1        0.0651
     20 H           5.4641   -1.6784    0.0000 H       1  UNL1        0.0624
     21 H           8.8600   -0.6784    0.0000 H       1  UNL1        0.0237
     22 H           9.4800   -0.0584    0.0000 H       1  UNL1        0.0237
     23 H           8.8600    0.5616    0.0000 H       1  UNL1        0.0237
     24 H           4.1306    1.4165    0.0000 H       1  UNL1        0.0325
     25 H           3.3335    1.4165    0.0000 H       1  UNL1        0.0325
     26 H           6.0841    1.9416    0.0000 H       1  UNL1        0.0278
     27 H           5.4641    2.5616    0.0000 H       1  UNL1        0.0278
     28 H           4.8441    1.9416    0.0000 H       1  UNL1        0.0278
     29 H           8.1937   -1.9416    0.0000 H       1  UNL1        0.2103
     30 H           3.4220   -0.5215    0.0000 H       1  UNL1        0.0278
     31 H           3.1951   -1.3684    0.0000 H       1  UNL1        0.0278
     32 H           4.0420   -1.5954    0.0000 H       1  UNL1        0.0278
     33 H           2.4675   -0.0334    0.0000 H       1  UNL1        0.0433
     34 H           3.2646   -0.0334    0.0000 H       1  UNL1        0.0433
@<TRIPOS>BOND
     1     1    17    1
     2     5     2    1
     3     2    29    1
     4     3     8    2
     5     4     5    1
     6     4     8    1
     7     4    13    1
     8     4    18    1
     9     5     6    1
    10     5    19    1
    11     6     7   ar
    12     6    11   ar
    13     7     8    1
    14     7     9   ar
    15     9    10   ar
    16     9    15    1
    17    10    12   ar
    18    10    14    1
    19    11    12   ar
    20    11    20    1
    21    12    16    1
    22    13    21    1
    23    13    22    1
    24    13    23    1
    25    14    17    1
    26    14    24    1
    27    14    25    1
    28    15    26    1
    29    15    27    1
    30    15    28    1
    31    16    30    1
    32    16    31    1
    33    16    32    1
    34    17    33    1
    35    17    34    1
