@<TRIPOS>MOLECULE
IMPHY002693
 26 27 0 0 0
SMALL
GASTEIGER

@<TRIPOS>ATOM
      1 O           6.5738    0.6466    0.0000 O.3     1  UNL1       -0.3902
      2 O           2.8639   -2.1755    0.0000 O.3     1  UNL1       -0.3902
      3 N           3.5723    1.6381    0.0000 N.3     1  UNL1       -0.2945
      4 C           4.0501   -0.3105    0.0000 C.3     1  UNL1        0.0388
      5 C           4.3089    0.6554    0.0000 C.3     1  UNL1        0.0366
      6 C           5.7078    0.1466    0.0000 C.3     1  UNL1        0.0722
      7 C           5.4490   -0.8193    0.0000 C.3     1  UNL1       -0.0073
      8 C           2.8290   -1.1761    0.0000 C.3     1  UNL1        0.0709
      9 C           2.2756    0.3443    0.0000 C.3     1  UNL1       -0.0326
     10 C           2.0000   -0.6170    0.0000 C.3     1  UNL1       -0.0239
     11 C           3.0723    2.5041    0.0000 C.3     1  UNL1       -0.0120
     12 H           4.1328   -0.9249    0.0000 H       1  UNL1        0.0489
     13 H           4.6782    1.1534    0.0000 H       1  UNL1        0.0488
     14 H           6.1997   -0.2308    0.0000 H       1  UNL1        0.0609
     15 H           5.2541   -1.4079    0.0000 H       1  UNL1        0.0307
     16 H           6.0430   -0.9971    0.0000 H       1  UNL1        0.0307
     17 H           2.2868   -1.4767    0.0000 H       1  UNL1        0.0609
     18 H           2.2706    0.9643    0.0000 H       1  UNL1        0.0282
     19 H           1.6613    0.4281    0.0000 H       1  UNL1        0.0282
     20 H           1.4252   -0.3847    0.0000 H       1  UNL1        0.0291
     21 H           1.7089   -1.1644    0.0000 H       1  UNL1        0.0291
     22 H           3.6092    2.8141    0.0000 H       1  UNL1        0.0391
     23 H           2.7623    3.0410    0.0000 H       1  UNL1        0.0391
     24 H           2.5353    2.1941    0.0000 H       1  UNL1        0.0391
     25 H           7.1108    0.3366    0.0000 H       1  UNL1        0.2098
     26 H           2.3382   -2.5041    0.0000 H       1  UNL1        0.2098
@<TRIPOS>BOND
     1     1     6    1
     2     1    25    1
     3     2     8    1
     4     2    26    1
     5     3     4    1
     6     3     5    1
     7     3    11    1
     8     4     7    1
     9     4     8    1
    10     4    12    1
    11     5     6    1
    12     5     9    1
    13     5    13    1
    14     6     7    1
    15     6    14    1
    16     7    15    1
    17     7    16    1
    18     8    10    1
    19     8    17    1
    20     9    10    1
    21     9    18    1
    22     9    19    1
    23    10    20    1
    24    10    21    1
    25    11    22    1
    26    11    23    1
    27    11    24    1
