@<TRIPOS>MOLECULE
IMPHY006830
 90 96 0 0 0
SMALL
GASTEIGER

@<TRIPOS>ATOM
      1 O           5.0128   -0.9129    0.0000 O.3     1  UNL1       -0.4547
      2 O           6.5304   -2.0818    0.0000 O.3     1  UNL1       -0.3790
      3 O           8.3531    1.6800    0.0000 O.3     1  UNL1       -0.3791
      4 O           4.6366    1.4285    0.0000 O.3     1  UNL1       -0.4544
      5 O           6.2278    2.9919    0.0000 O.3     1  UNL1       -0.3822
      6 O           4.2238   -0.4717    0.0000 O.3     1  UNL1       -0.3851
      7 O           4.2354    2.1380    0.0000 O.3     1  UNL1       -0.3741
      8 O          10.1039   -0.5901    0.0000 O.3     1  UNL1       -0.3910
      9 O           9.2191   -2.5551    0.0000 O.3     1  UNL1       -0.3823
     10 O           5.2090   -2.6339    0.0000 O.2     1  UNL1       -0.2511
     11 O           3.4088    0.2068    0.0000 O.2     1  UNL1       -0.2449
     12 N           9.5484   -0.1490    0.0000 N.3     1  UNL1       -0.3006
     13 C           7.6017    0.2462    0.0000 C.3     1  UNL1        0.0223
     14 C           7.6017   -0.6213    0.0000 C.3     1  UNL1        0.0067
     15 C           6.9234    0.7872    0.0000 C.3     1  UNL1       -0.0184
     16 C           8.6037    0.1402    0.0000 C.3     1  UNL1        0.0277
     17 C           6.0776   -0.9692    0.0000 C.3     1  UNL1        0.0446
     18 C           6.0776    0.5941    0.0000 C.3     1  UNL1        0.0454
     19 C           5.7012   -0.1876    0.0000 C.3     1  UNL1        0.1547
     20 C           6.9234   -1.1623    0.0000 C.3     1  UNL1        0.0705
     21 C           8.3531   -1.0551    0.0000 C.3     1  UNL1        0.0386
     22 C           8.3531    0.6800    0.0000 C.3     1  UNL1        0.0683
     23 C           7.0012    1.6512    0.0000 C.3     1  UNL1       -0.0140
     24 C           6.2034    1.9922    0.0000 C.3     1  UNL1        0.1318
     25 C           5.6326    1.3389    0.0000 C.3     1  UNL1        0.1412
     26 C           5.0563    0.0824    0.0000 C.3     1  UNL1        0.1244
     27 C           9.5484   -0.9009    0.0000 C.3     1  UNL1        0.0094
     28 C           9.1044   -0.6213    0.0000 C.3     1  UNL1        0.0668
     29 C           5.0563    1.5669    0.0000 C.3     1  UNL1        0.1199
     30 C           9.1044    0.2462    0.0000 C.3     1  UNL1        0.0008
     31 C           8.3530   -2.0551    0.0000 C.3     1  UNL1        0.0568
     32 C          10.3524    0.4457    0.0000 C.3     1  UNL1       -0.0124
     33 C           4.6140   -1.8300    0.0000 C.2     1  UNL1        0.3046
     34 C           7.1302   -2.8819    0.0000 C.3     1  UNL1        0.0368
     35 C           9.2191    2.1800    0.0000 C.3     1  UNL1        0.0368
     36 C           3.6701    1.1721    0.0000 C.2     1  UNL1        0.3395
     37 C           4.3196    3.1344    0.0000 C.3     1  UNL1        0.0370
     38 C           3.6205   -1.9432    0.0000 C.3     1  UNL1        0.0333
     39 C           9.2191   -3.5551    0.0000 C.3     1  UNL1        0.0365
     40 C           2.9647    1.8810    0.0000 C.ar    1  UNL1        0.0590
     41 C           1.9982    1.6246    0.0000 C.ar    1  UNL1       -0.0478
     42 C           3.2260    2.8462    0.0000 C.ar    1  UNL1       -0.0478
     43 C           1.2928    2.3334    0.0000 C.ar    1  UNL1       -0.0610
     44 C           2.5206    3.5551    0.0000 C.ar    1  UNL1       -0.0610
     45 C           1.5540    3.2987    0.0000 C.ar    1  UNL1       -0.0617
     46 H           7.6652   -1.4690    0.0000 H       1  UNL1        0.0340
     47 H           7.7050    1.1212    0.0000 H       1  UNL1        0.0314
     48 H           8.7276    0.7477    0.0000 H       1  UNL1        0.0474
     49 H           5.5476   -1.6338    0.0000 H       1  UNL1        0.0381
     50 H           5.2284    0.5560    0.0000 H       1  UNL1        0.0380
     51 H           7.1238   -1.7490    0.0000 H       1  UNL1        0.0603
     52 H           7.8161    0.9900    0.0000 H       1  UNL1        0.0603
     53 H           7.1839    2.2437    0.0000 H       1  UNL1        0.0298
     54 H           7.6095    1.5314    0.0000 H       1  UNL1        0.0298
     55 H           5.4018    1.9143    0.0000 H       1  UNL1        0.0768
     56 H           4.5097    0.3751    0.0000 H       1  UNL1        0.0661
     57 H          10.1678   -0.8744    0.0000 H       1  UNL1        0.0434
     58 H           9.6014   -1.5186    0.0000 H       1  UNL1        0.0434
     59 H           9.2742   -1.2176    0.0000 H       1  UNL1        0.0601
     60 H           5.1344    2.1819    0.0000 H       1  UNL1        0.0653
     61 H           9.3164    0.8288    0.0000 H       1  UNL1        0.0315
     62 H           9.7150    0.1386    0.0000 H       1  UNL1        0.0315
     63 H           8.1410   -2.6377    0.0000 H       1  UNL1        0.0566
     64 H           7.7425   -1.9475    0.0000 H       1  UNL1        0.0566
     65 H           9.9837    0.9441    0.0000 H       1  UNL1        0.0391
     66 H          10.8508    0.8144    0.0000 H       1  UNL1        0.0391
     67 H          10.7211   -0.0528    0.0000 H       1  UNL1        0.0391
     68 H           5.6986    3.3150    0.0000 H       1  UNL1        0.2104
     69 H           4.2632   -1.0904    0.0000 H       1  UNL1        0.2101
     70 H          10.4305   -1.1171    0.0000 H       1  UNL1        0.2098
     71 H           7.6263   -2.5100    0.0000 H       1  UNL1        0.0524
     72 H           7.5021   -3.3780    0.0000 H       1  UNL1        0.0524
     73 H           6.6341   -3.2538    0.0000 H       1  UNL1        0.0524
     74 H           8.9091    2.7170    0.0000 H       1  UNL1        0.0524
     75 H           9.7560    2.4900    0.0000 H       1  UNL1        0.0524
     76 H           9.5291    1.6431    0.0000 H       1  UNL1        0.0524
     77 H           3.7018    3.1866    0.0000 H       1  UNL1        0.0524
     78 H           4.3717    3.7522    0.0000 H       1  UNL1        0.0524
     79 H           4.9374    3.0823    0.0000 H       1  UNL1        0.0524
     80 H           3.6908   -2.5593    0.0000 H       1  UNL1        0.0342
     81 H           3.0045   -2.0135    0.0000 H       1  UNL1        0.0342
     82 H           3.5503   -1.3272    0.0000 H       1  UNL1        0.0342
     83 H           9.8391   -3.5551    0.0000 H       1  UNL1        0.0523
     84 H           9.2191   -4.1751    0.0000 H       1  UNL1        0.0523
     85 H           8.5991   -3.5551    0.0000 H       1  UNL1        0.0523
     86 H           1.8362    1.0261    0.0000 H       1  UNL1        0.0626
     87 H           3.8252    3.0052    0.0000 H       1  UNL1        0.0626
     88 H           0.6935    2.1745    0.0000 H       1  UNL1        0.0618
     89 H           2.6826    4.1536    0.0000 H       1  UNL1        0.0618
     90 H           1.1167    3.7382    0.0000 H       1  UNL1        0.0618
@<TRIPOS>BOND
     1    19     1    1
     2     1    33    1
     3    20     2    1
     4     2    34    1
     5    22     3    1
     6     3    35    1
     7    25     4    1
     8     4    36    1
     9    24     5    1
    10     5    68    1
    11    26     6    1
    12     6    69    1
    13    29     7    1
    14     7    37    1
    15    28     8    1
    16     8    70    1
    17     9    31    1
    18     9    39    1
    19    10    33    2
    20    11    36    2
    21    12    16    1
    22    12    27    1
    23    12    32    1
    24    13    14    1
    25    13    15    1
    26    13    16    1
    27    13    22    1
    28    14    20    1
    29    14    21    1
    30    14    46    1
    31    15    18    1
    32    15    23    1
    33    15    47    1
    34    16    17    1
    35    16    48    1
    36    17    19    1
    37    17    20    1
    38    17    49    1
    39    18    19    1
    40    18    25    1
    41    18    50    1
    42    19    26    1
    43    20    51    1
    44    21    27    1
    45    21    28    1
    46    21    31    1
    47    22    30    1
    48    22    52    1
    49    23    24    1
    50    23    53    1
    51    23    54    1
    52    24    25    1
    53    24    29    1
    54    25    55    1
    55    26    29    1
    56    26    56    1
    57    27    57    1
    58    27    58    1
    59    28    30    1
    60    28    59    1
    61    29    60    1
    62    30    61    1
    63    30    62    1
    64    31    63    1
    65    31    64    1
    66    32    65    1
    67    32    66    1
    68    32    67    1
    69    33    38    1
    70    34    71    1
    71    34    72    1
    72    34    73    1
    73    35    74    1
    74    35    75    1
    75    35    76    1
    76    36    40    1
    77    37    77    1
    78    37    78    1
    79    37    79    1
    80    38    80    1
    81    38    81    1
    82    38    82    1
    83    39    83    1
    84    39    84    1
    85    39    85    1
    86    40    41   ar
    87    40    42   ar
    88    41    43   ar
    89    41    86    1
    90    42    44   ar
    91    42    87    1
    92    43    45   ar
    93    43    88    1
    94    44    45   ar
    95    44    89    1
    96    45    90    1
