@<TRIPOS>MOLECULE
IMPHY014319
 43 45 0 0 0
SMALL
GASTEIGER

@<TRIPOS>ATOM
      1 O          12.1945    1.5342    0.0000 O.3     1  UNL1       -0.3891
      2 O           6.0682   -1.0000    0.0000 O.2     1  UNL1       -0.4506
      3 O           7.8167    2.0346    0.0000 O.3     1  UNL1       -0.5055
      4 O           9.5984   -1.0241    0.0000 O.3     1  UNL1       -0.5063
      5 O           6.0682    2.0000    0.0000 O.2     1  UNL1       -0.2863
      6 O           4.3198   -2.0346    0.0000 O.3     1  UNL1       -0.5009
      7 O           2.5381   -1.0241    0.0000 O.3     1  UNL1       -0.5032
      8 C          11.3304    1.0308    0.0000 C.3     1  UNL1        0.0608
      9 C          10.4663    0.5275    0.0000 C.3     1  UNL1       -0.0203
     10 C           9.5984    1.0241    0.0000 C.3     1  UNL1       -0.0181
     11 C           8.7343    0.5208    0.0000 C.ar    1  UNL1        0.0364
     12 C          11.8338    0.1667    0.0000 C.3     1  UNL1       -0.0363
     13 C          10.8271    1.8949    0.0000 C.3     1  UNL1       -0.0363
     14 C           7.8282    1.0347    0.0000 C.ar    1  UNL1        0.1378
     15 C           6.9343    0.5000    0.0000 C.ar    1  UNL1        0.1063
     16 C           8.7343   -0.5208    0.0000 C.ar    1  UNL1        0.1270
     17 C           6.9343   -0.5000    0.0000 C.ar    1  UNL1        0.1464
     18 C           7.8282   -1.0347    0.0000 C.ar    1  UNL1        0.0234
     19 C           6.0682    1.0000    0.0000 C.ar    1  UNL1        0.2038
     20 C           5.2022    0.5000    0.0000 C.ar    1  UNL1        0.0686
     21 C           5.2022   -0.5000    0.0000 C.ar    1  UNL1        0.1841
     22 C           4.3083    1.0347    0.0000 C.ar    1  UNL1       -0.0437
     23 C           4.3083   -1.0347    0.0000 C.ar    1  UNL1        0.2021
     24 C           3.4022   -0.5208    0.0000 C.ar    1  UNL1        0.1620
     25 C           3.4022    0.5208    0.0000 C.ar    1  UNL1       -0.0156
     26 H          10.0696    0.0510    0.0000 H       1  UNL1        0.0296
     27 H          10.8667    0.0541    0.0000 H       1  UNL1        0.0296
     28 H           9.9951    1.5006    0.0000 H       1  UNL1        0.0316
     29 H           9.1980    1.4976    0.0000 H       1  UNL1        0.0316
     30 H          11.2980   -0.1453    0.0000 H       1  UNL1        0.0257
     31 H          12.1458   -0.3690    0.0000 H       1  UNL1        0.0257
     32 H          12.3695    0.4788    0.0000 H       1  UNL1        0.0257
     33 H          11.3628    2.2070    0.0000 H       1  UNL1        0.0257
     34 H          10.5150    2.4306    0.0000 H       1  UNL1        0.0257
     35 H          10.2913    1.5828    0.0000 H       1  UNL1        0.0257
     36 H           7.8210   -1.6546    0.0000 H       1  UNL1        0.0691
     37 H          12.7326    1.2262    0.0000 H       1  UNL1        0.2101
     38 H           4.3154    1.6546    0.0000 H       1  UNL1        0.0627
     39 H           8.3500    2.3508    0.0000 H       1  UNL1        0.2922
     40 H           9.5960   -1.6442    0.0000 H       1  UNL1        0.2921
     41 H           2.8665    0.8329    0.0000 H       1  UNL1        0.0655
     42 H           3.7865   -2.3508    0.0000 H       1  UNL1        0.2924
     43 H           2.0000   -0.7162    0.0000 H       1  UNL1        0.2923
@<TRIPOS>BOND
     1     1     8    1
     2     1    37    1
     3     2    17   ar
     4     2    21   ar
     5     3    14    1
     6     3    39    1
     7     4    16    1
     8     4    40    1
     9     5    19    2
    10     6    23    1
    11     6    42    1
    12     7    24    1
    13     7    43    1
    14     8     9    1
    15     8    12    1
    16     8    13    1
    17     9    10    1
    18     9    26    1
    19     9    27    1
    20    10    11    1
    21    10    28    1
    22    10    29    1
    23    11    14   ar
    24    11    16   ar
    25    12    30    1
    26    12    31    1
    27    12    32    1
    28    13    33    1
    29    13    34    1
    30    13    35    1
    31    14    15   ar
    32    15    17   ar
    33    15    19   ar
    34    16    18   ar
    35    17    18   ar
    36    18    36    1
    37    19    20   ar
    38    20    21   ar
    39    20    22   ar
    40    21    23   ar
    41    22    25   ar
    42    22    38    1
    43    23    24   ar
    44    24    25   ar
    45    25    41    1
