@<TRIPOS>MOLECULE
IMPHY002575
 41 42 0 0 0
SMALL
GASTEIGER

@<TRIPOS>ATOM
      1 O           4.8660    1.0490    0.0000 O.3     1  UNL1       -0.3667
      2 O           2.2680    2.5490    0.0000 O.2     1  UNL1       -0.2972
      3 C           4.0000    0.5490    0.0000 C.3     1  UNL1        0.0772
      4 C           3.5000   -0.3170    0.0000 C.3     1  UNL1       -0.0080
      5 C           3.1340    1.0490    0.0000 C.3     1  UNL1        0.0351
      6 C           2.5000   -0.3170    0.0000 C.3     1  UNL1       -0.0436
      7 C           4.8660    2.0490    0.0000 C.3     1  UNL1        0.0713
      8 C           4.0000   -1.1830    0.0000 C.3     1  UNL1       -0.0291
      9 C           4.0000    2.5490    0.0000 C.3     1  UNL1        0.0345
     10 C           4.5000   -0.3170    0.0000 C.3     1  UNL1       -0.0351
     11 C           2.0000   -1.1830    0.0000 C.3     1  UNL1       -0.0317
     12 C           3.1340    2.0490    0.0000 C.2     1  UNL1        0.1388
     13 C           3.5000   -2.0490    0.0000 C.2     1  UNL1       -0.0847
     14 C           2.5000   -2.0490    0.0000 C.2     1  UNL1       -0.0765
     15 C           5.3660    2.9151    0.0000 C.3     1  UNL1       -0.0357
     16 C           5.8660    2.0490    0.0000 C.3     1  UNL1       -0.0357
     17 C           2.0000   -2.9151    0.0000 C.3     1  UNL1       -0.0438
     18 H           3.1900    0.2199    0.0000 H       1  UNL1        0.0332
     19 H           2.5234    1.1567    0.0000 H       1  UNL1        0.0370
     20 H           2.9219    0.4664    0.0000 H       1  UNL1        0.0370
     21 H           2.6077    0.2936    0.0000 H       1  UNL1        0.0272
     22 H           1.9174   -0.1049    0.0000 H       1  UNL1        0.0272
     23 H           4.4750   -1.5815    0.0000 H       1  UNL1        0.0311
     24 H           4.4750   -0.7845    0.0000 H       1  UNL1        0.0311
     25 H           4.3985    3.0240    0.0000 H       1  UNL1        0.0370
     26 H           3.6015    3.0240    0.0000 H       1  UNL1        0.0370
     27 H           3.9631   -0.6270    0.0000 H       1  UNL1        0.0257
     28 H           4.8100   -0.8539    0.0000 H       1  UNL1        0.0257
     29 H           5.0369   -0.0070    0.0000 H       1  UNL1        0.0257
     30 H           1.5250   -0.7845    0.0000 H       1  UNL1        0.0310
     31 H           1.5250   -1.5815    0.0000 H       1  UNL1        0.0310
     32 H           3.8100   -2.5860    0.0000 H       1  UNL1        0.0572
     33 H           5.8660    1.4290    0.0000 H       1  UNL1        0.0257
     34 H           6.4860    2.0490    0.0000 H       1  UNL1        0.0257
     35 H           5.8660    2.6690    0.0000 H       1  UNL1        0.0257
     36 H           5.9030    2.6051    0.0000 H       1  UNL1        0.0257
     37 H           5.6760    3.4520    0.0000 H       1  UNL1        0.0257
     38 H           4.8291    3.2251    0.0000 H       1  UNL1        0.0257
     39 H           1.4631   -2.6051    0.0000 H       1  UNL1        0.0274
     40 H           1.6900   -3.4520    0.0000 H       1  UNL1        0.0274
     41 H           2.5369   -3.2251    0.0000 H       1  UNL1        0.0274
@<TRIPOS>BOND
     1     1     3    1
     2     1     7    1
     3     2    12    2
     4     3     4    1
     5     3     5    1
     6     3    10    1
     7     4     6    1
     8     4     8    1
     9     4    18    1
    10     5    12    1
    11     5    19    1
    12     5    20    1
    13     6    11    1
    14     6    21    1
    15     6    22    1
    16     7     9    1
    17     7    15    1
    18     7    16    1
    19     8    13    1
    20     8    23    1
    21     8    24    1
    22     9    12    1
    23     9    25    1
    24     9    26    1
    25    10    27    1
    26    10    28    1
    27    10    29    1
    28    11    14    1
    29    11    30    1
    30    11    31    1
    31    13    14    2
    32    13    32    1
    33    14    17    1
    34    15    36    1
    35    15    37    1
    36    15    38    1
    37    16    33    1
    38    16    34    1
    39    16    35    1
    40    17    39    1
    41    17    40    1
    42    17    41    1
