@<TRIPOS>MOLECULE
IMPHY013408
 70 74 0 0 0
SMALL
GASTEIGER

@<TRIPOS>ATOM
      1 O           7.7331   -0.9225    0.0000 O.3     1  UNL1       -0.3378
      2 O           6.8671   -2.4225    0.0000 O.3     1  UNL1       -0.3174
      3 O           5.1350   -2.4225    0.0000 O.3     1  UNL1       -0.3404
      4 O           5.1350   -1.4225    0.0000 O.3     1  UNL1       -0.3841
      5 O           5.1350    0.5775    0.0000 O.3     1  UNL1       -0.3864
      6 O           6.8671    1.5775    0.0000 O.3     1  UNL1       -0.3862
      7 O           6.8671   -4.4225    0.0000 O.3     1  UNL1       -0.3841
      8 O           5.1350   -5.4225    0.0000 O.3     1  UNL1       -0.3864
      9 O           3.4030   -4.4225    0.0000 O.3     1  UNL1       -0.3865
     10 O           2.5369   -2.9225    0.0000 O.3     1  UNL1       -0.3924
     11 O           7.7331    2.0775    0.0000 O.3     1  UNL1       -0.5054
     12 O           9.4651   -0.9225    0.0000 O.3     1  UNL1       -0.5062
     13 O          11.2412    2.0843    0.0000 O.2     1  UNL1       -0.4544
     14 O           8.5773    3.6089    0.0000 O.2     1  UNL1       -0.2869
     15 O          14.7133    3.1126    0.0000 O.3     1  UNL1       -0.5033
     16 O          14.7210    5.1125    0.0000 O.3     1  UNL1       -0.5033
     17 C           6.8671   -1.4225    0.0000 C.3     1  UNL1        0.1912
     18 C           6.0010   -0.9225    0.0000 C.3     1  UNL1        0.1342
     19 C           6.0010    0.0775    0.0000 C.3     1  UNL1        0.1143
     20 C           6.8671    0.5775    0.0000 C.3     1  UNL1        0.1141
     21 C           7.7331    0.0775    0.0000 C.3     1  UNL1        0.1218
     22 C           6.0010   -2.9225    0.0000 C.3     1  UNL1        0.1909
     23 C           6.0010   -3.9225    0.0000 C.3     1  UNL1        0.1342
     24 C           5.1350   -4.4225    0.0000 C.3     1  UNL1        0.1141
     25 C           4.2690   -3.9225    0.0000 C.3     1  UNL1        0.1119
     26 C           4.2690   -2.9225    0.0000 C.3     1  UNL1        0.1130
     27 C           8.5991    0.5775    0.0000 C.ar    1  UNL1        0.0674
     28 C           3.4030   -2.4225    0.0000 C.3     1  UNL1        0.0730
     29 C           8.5991    1.5775    0.0000 C.ar    1  UNL1        0.1404
     30 C           9.4651    0.0775    0.0000 C.ar    1  UNL1        0.1296
     31 C           9.4651    2.0775    0.0000 C.ar    1  UNL1        0.1058
     32 C          10.3312    0.5775    0.0000 C.ar    1  UNL1        0.0235
     33 C          10.3312    1.5775    0.0000 C.ar    1  UNL1        0.1463
     34 C           9.4491    3.1190    0.0000 C.ar    1  UNL1        0.1966
     35 C          10.3471    3.6467    0.0000 C.ar    1  UNL1        0.0288
     36 C          11.2492    3.1259    0.0000 C.ar    1  UNL1        0.1393
     37 C          12.1171    3.6226    0.0000 C.ar    1  UNL1        0.0211
     38 C          12.9812    3.1192    0.0000 C.ar    1  UNL1       -0.0059
     39 C          12.1210    4.6226    0.0000 C.ar    1  UNL1       -0.0474
     40 C          13.8492    3.6159    0.0000 C.ar    1  UNL1        0.1589
     41 C          12.9889    5.1192    0.0000 C.ar    1  UNL1       -0.0159
     42 C          13.8530    4.6159    0.0000 C.ar    1  UNL1        0.1583
     43 H           6.3301   -1.7325    0.0000 H       1  UNL1        0.0939
     44 H           5.4641   -0.6125    0.0000 H       1  UNL1        0.0671
     45 H           6.0010    0.6975    0.0000 H       1  UNL1        0.0648
     46 H           7.4040    0.8875    0.0000 H       1  UNL1        0.0649
     47 H           8.4692   -0.3475    0.0000 H       1  UNL1        0.0677
     48 H           6.0010   -2.3025    0.0000 H       1  UNL1        0.0938
     49 H           6.0010   -4.5425    0.0000 H       1  UNL1        0.0671
     50 H           4.5981   -4.7325    0.0000 H       1  UNL1        0.0648
     51 H           4.2690   -4.5425    0.0000 H       1  UNL1        0.0647
     52 H           4.2690   -2.3025    0.0000 H       1  UNL1        0.0647
     53 H           3.8015   -1.9476    0.0000 H       1  UNL1        0.0584
     54 H           3.0044   -1.9476    0.0000 H       1  UNL1        0.0584
     55 H           4.5981   -1.1125    0.0000 H       1  UNL1        0.2101
     56 H           4.5981    0.2675    0.0000 H       1  UNL1        0.2100
     57 H           6.3301    1.8875    0.0000 H       1  UNL1        0.2100
     58 H           7.4040   -4.1125    0.0000 H       1  UNL1        0.2101
     59 H           5.6720   -5.7325    0.0000 H       1  UNL1        0.2100
     60 H           3.4030   -5.0425    0.0000 H       1  UNL1        0.2100
     61 H          10.8681    0.2675    0.0000 H       1  UNL1        0.0691
     62 H           2.0000   -2.6125    0.0000 H       1  UNL1        0.2095
     63 H           7.7331    2.6975    0.0000 H       1  UNL1        0.2922
     64 H          10.0021   -1.2325    0.0000 H       1  UNL1        0.2922
     65 H          10.3447    4.2667    0.0000 H       1  UNL1        0.0693
     66 H          12.9788    2.4992    0.0000 H       1  UNL1        0.0662
     67 H          11.5853    4.9346    0.0000 H       1  UNL1        0.0626
     68 H          12.9913    5.7392    0.0000 H       1  UNL1        0.0655
     69 H          15.2514    3.4205    0.0000 H       1  UNL1        0.2923
     70 H          14.7234    5.7325    0.0000 H       1  UNL1        0.2923
@<TRIPOS>BOND
     1     1    17    1
     2     1    21    1
     3     2    17    1
     4    22     2    1
     5     3    22    1
     6     3    26    1
     7    18     4    1
     8     4    55    1
     9    19     5    1
    10     5    56    1
    11     6    20    1
    12     6    57    1
    13     7    23    1
    14     7    58    1
    15    24     8    1
    16     8    59    1
    17    25     9    1
    18     9    60    1
    19    10    28    1
    20    10    62    1
    21    11    29    1
    22    11    63    1
    23    12    30    1
    24    12    64    1
    25    13    33   ar
    26    13    36   ar
    27    14    34    2
    28    15    40    1
    29    15    69    1
    30    16    42    1
    31    16    70    1
    32    17    18    1
    33    17    43    1
    34    18    19    1
    35    18    44    1
    36    19    20    1
    37    19    45    1
    38    20    21    1
    39    20    46    1
    40    21    27    1
    41    21    47    1
    42    22    23    1
    43    22    48    1
    44    23    24    1
    45    23    49    1
    46    24    25    1
    47    24    50    1
    48    25    26    1
    49    25    51    1
    50    26    28    1
    51    26    52    1
    52    27    29   ar
    53    27    30   ar
    54    28    53    1
    55    28    54    1
    56    29    31   ar
    57    30    32   ar
    58    31    33   ar
    59    31    34   ar
    60    32    33   ar
    61    32    61    1
    62    34    35   ar
    63    35    36   ar
    64    35    65    1
    65    36    37    1
    66    37    38   ar
    67    37    39   ar
    68    38    40   ar
    69    38    66    1
    70    39    41   ar
    71    39    67    1
    72    40    42   ar
    73    41    42   ar
    74    41    68    1
