@<TRIPOS>MOLECULE
IMPHY005235
 38 40 0 0 0
SMALL
GASTEIGER

@<TRIPOS>ATOM
      1 O           5.5301   -0.2704    0.0000 O.3     1  UNL1       -0.4802
      2 O           7.2622    1.7296    0.0000 O.3     1  UNL1       -0.3798
      3 O           5.5301    2.7296    0.0000 O.2     1  UNL1       -0.2889
      4 O           3.7817    2.7642    0.0000 O.3     1  UNL1       -0.5056
      5 O           2.0000   -0.2945    0.0000 O.3     1  UNL1       -0.5063
      6 O           9.8602    0.2296    0.0000 O.3     1  UNL1       -0.5032
      7 O           8.1282   -2.7704    0.0000 O.3     1  UNL1       -0.5032
      8 O           9.8602   -1.7704    0.0000 O.3     1  UNL1       -0.5009
      9 C           6.3961    0.2296    0.0000 C.3     1  UNL1        0.1583
     10 C           6.3961    1.2296    0.0000 C.3     1  UNL1        0.1585
     11 C           4.6641    1.2296    0.0000 C.ar    1  UNL1        0.1036
     12 C           7.2622   -0.2704    0.0000 C.ar    1  UNL1        0.0027
     13 C           5.5301    1.7296    0.0000 C.2     1  UNL1        0.2024
     14 C           4.6641    0.2296    0.0000 C.ar    1  UNL1        0.1391
     15 C           3.7702    1.7643    0.0000 C.ar    1  UNL1        0.1373
     16 C           3.7702   -0.3051    0.0000 C.ar    1  UNL1        0.0228
     17 C           2.8641    1.2504    0.0000 C.ar    1  UNL1        0.0332
     18 C           7.2622   -1.2704    0.0000 C.ar    1  UNL1       -0.0095
     19 C           8.1282    0.2296    0.0000 C.ar    1  UNL1       -0.0095
     20 C           2.8641    0.2088    0.0000 C.ar    1  UNL1        0.1267
     21 C           8.9942   -0.2704    0.0000 C.ar    1  UNL1        0.1623
     22 C           8.1282   -1.7704    0.0000 C.ar    1  UNL1        0.1623
     23 C           8.9942   -1.2704    0.0000 C.ar    1  UNL1        0.2006
     24 C           2.0000    1.7538    0.0000 C.3     1  UNL1       -0.0327
     25 H           6.9331    0.5396    0.0000 H       1  UNL1        0.0815
     26 H           6.3961    1.8496    0.0000 H       1  UNL1        0.0718
     27 H           3.7773   -0.9250    0.0000 H       1  UNL1        0.0691
     28 H           6.7252   -1.5804    0.0000 H       1  UNL1        0.0659
     29 H           8.1282    0.8496    0.0000 H       1  UNL1        0.0659
     30 H           7.2622    2.3496    0.0000 H       1  UNL1        0.2105
     31 H           2.3121    2.2895    0.0000 H       1  UNL1        0.0280
     32 H           1.4643    2.0658    0.0000 H       1  UNL1        0.0280
     33 H           1.6879    1.2180    0.0000 H       1  UNL1        0.0280
     34 H           3.2484    3.0804    0.0000 H       1  UNL1        0.2922
     35 H           2.0024   -0.9145    0.0000 H       1  UNL1        0.2921
     36 H           9.8602    0.8496    0.0000 H       1  UNL1        0.2923
     37 H           7.5913   -3.0804    0.0000 H       1  UNL1        0.2923
     38 H           9.8602   -2.3904    0.0000 H       1  UNL1        0.2924
@<TRIPOS>BOND
     1     1     9    1
     2     1    14    1
     3    10     2    1
     4     2    30    1
     5     3    13    2
     6     4    15    1
     7     4    34    1
     8     5    20    1
     9     5    35    1
    10     6    21    1
    11     6    36    1
    12     7    22    1
    13     7    37    1
    14     8    23    1
    15     8    38    1
    16     9    10    1
    17     9    12    1
    18     9    25    1
    19    10    13    1
    20    10    26    1
    21    11    13    1
    22    11    14   ar
    23    11    15   ar
    24    12    18   ar
    25    12    19   ar
    26    14    16   ar
    27    15    17   ar
    28    16    20   ar
    29    16    27    1
    30    17    20   ar
    31    17    24    1
    32    18    22   ar
    33    18    28    1
    34    19    21   ar
    35    19    29    1
    36    21    23   ar
    37    22    23   ar
    38    24    31    1
    39    24    32    1
    40    24    33    1
