@<TRIPOS>MOLECULE
IMPHY016540
 43 44 0 0 0
SMALL
GASTEIGER

@<TRIPOS>ATOM
      1 O           5.8338   -1.1836    0.0000 O.3     1  UNL1       -0.4608
      2 O           4.2640   -0.4517    0.0000 O.2     1  UNL1       -0.2508
      3 C           7.6291    0.3147    0.0000 C.3     1  UNL1        0.0104
      4 C           7.1514    2.2632    0.0000 C.3     1  UNL1       -0.0232
      5 C           7.8880    1.2806    0.0000 C.3     1  UNL1       -0.0319
      6 C           6.2564   -0.2773    0.0000 C.3     1  UNL1        0.1092
      7 C           9.0281   -0.1941    0.0000 C.3     1  UNL1       -0.0435
      8 C           5.9144    0.6623    0.0000 C.3     1  UNL1       -0.0118
      9 C           9.2869    0.7718    0.0000 C.3     1  UNL1       -0.0490
     10 C           7.3703   -0.6513    0.0000 C.3     1  UNL1       -0.0557
     11 C           7.2559    3.2577    0.0000 C.3     1  UNL1       -0.0589
     12 C           6.2378    2.6700    0.0000 C.3     1  UNL1       -0.0589
     13 C           4.8376   -1.2708    0.0000 C.2     1  UNL1        0.3074
     14 C           4.4150   -2.1771    0.0000 C.3     1  UNL1        0.0449
     15 C           3.4188   -2.2643    0.0000 C.3     1  UNL1       -0.0432
     16 C           2.9962   -3.1706    0.0000 C.3     1  UNL1       -0.0554
     17 C           2.0000   -3.2577    0.0000 C.3     1  UNL1       -0.0653
     18 H           7.8739    0.6608    0.0000 H       1  UNL1        0.0307
     19 H           6.6884   -0.7221    0.0000 H       1  UNL1        0.0739
     20 H           8.8332   -0.7827    0.0000 H       1  UNL1        0.0272
     21 H           9.6220   -0.3719    0.0000 H       1  UNL1        0.0272
     22 H           5.7201    1.2511    0.0000 H       1  UNL1        0.0304
     23 H           5.3287    0.4592    0.0000 H       1  UNL1        0.0304
     24 H           9.8809    0.5940    0.0000 H       1  UNL1        0.0268
     25 H           9.4818    1.3603    0.0000 H       1  UNL1        0.0268
     26 H           6.7714   -0.4908    0.0000 H       1  UNL1        0.0236
     27 H           7.2099   -1.2501    0.0000 H       1  UNL1        0.0236
     28 H           7.9692   -0.8117    0.0000 H       1  UNL1        0.0236
     29 H           7.8725    3.1929    0.0000 H       1  UNL1        0.0235
     30 H           7.3207    3.8743    0.0000 H       1  UNL1        0.0235
     31 H           6.6393    3.3225    0.0000 H       1  UNL1        0.0235
     32 H           6.4900    3.2364    0.0000 H       1  UNL1        0.0235
     33 H           5.6714    2.9221    0.0000 H       1  UNL1        0.0235
     34 H           5.9856    2.1035    0.0000 H       1  UNL1        0.0235
     35 H           4.3610   -2.7948    0.0000 H       1  UNL1        0.0377
     36 H           5.0139   -2.3376    0.0000 H       1  UNL1        0.0377
     37 H           3.4728   -1.6466    0.0000 H       1  UNL1        0.0270
     38 H           2.8199   -2.1038    0.0000 H       1  UNL1        0.0270
     39 H           2.9422   -3.7882    0.0000 H       1  UNL1        0.0263
     40 H           3.5951   -3.3310    0.0000 H       1  UNL1        0.0263
     41 H           1.9460   -2.6401    0.0000 H       1  UNL1        0.0230
     42 H           1.3824   -3.3118    0.0000 H       1  UNL1        0.0230
     43 H           2.0540   -3.8754    0.0000 H       1  UNL1        0.0230
@<TRIPOS>BOND
     1     1     6    1
     2     1    13    1
     3     2    13    2
     4     3     4    1
     5     3     6    1
     6     3     7    1
     7     3    10    1
     8     4     5    1
     9     4    11    1
    10     4    12    1
    11     5     8    1
    12     5     9    1
    13     5    18    1
    14     6     8    1
    15     6    19    1
    16     7     9    1
    17     7    20    1
    18     7    21    1
    19     8    22    1
    20     8    23    1
    21     9    24    1
    22     9    25    1
    23    10    26    1
    24    10    27    1
    25    10    28    1
    26    11    29    1
    27    11    30    1
    28    11    31    1
    29    12    32    1
    30    12    33    1
    31    12    34    1
    32    13    14    1
    33    14    15    1
    34    14    35    1
    35    14    36    1
    36    15    16    1
    37    15    37    1
    38    15    38    1
    39    16    17    1
    40    16    39    1
    41    16    40    1
    42    17    41    1
    43    17    42    1
    44    17    43    1
