@<TRIPOS>MOLECULE
IMPHY004517
 57 61 0 0 0
SMALL
GASTEIGER

@<TRIPOS>ATOM
      1 O           8.6793   -2.0621    0.0000 O.3     1  UNL1       -0.4829
      2 O           5.1350   -2.2574    0.0000 O.3     1  UNL1       -0.5066
      3 O           7.9650    2.9370    0.0000 O.3     1  UNL1       -0.5066
      4 O          11.2576    1.8608    0.0000 O.3     1  UNL1       -0.5066
      5 O          12.2629   -2.9894    0.0000 O.3     1  UNL1       -0.5033
      6 O          13.2629   -1.2574    0.0000 O.3     1  UNL1       -0.5033
      7 O           2.5369   -0.7574    0.0000 O.3     1  UNL1       -0.5068
      8 C           8.6793   -0.4526    0.0000 C.3     1  UNL1        0.0546
      9 C           9.2629   -1.2574    0.0000 C.3     1  UNL1        0.1361
     10 C           7.7331   -0.7574    0.0000 C.ar    1  UNL1        0.0129
     11 C           7.7331   -1.7574    0.0000 C.ar    1  UNL1        0.1293
     12 C           8.9900    0.4979    0.0000 C.ar    1  UNL1       -0.0291
     13 C          10.2629   -1.2574    0.0000 C.ar    1  UNL1       -0.0028
     14 C           6.8671   -0.2574    0.0000 C.ar    1  UNL1       -0.0142
     15 C           6.8671   -2.2574    0.0000 C.ar    1  UNL1        0.0219
     16 C           9.9685    0.7041    0.0000 C.ar    1  UNL1       -0.0161
     17 C           8.3221    1.2422    0.0000 C.ar    1  UNL1       -0.0161
     18 C           6.0010   -0.7574    0.0000 C.ar    1  UNL1       -0.0125
     19 C          10.7629   -2.1234    0.0000 C.ar    1  UNL1       -0.0098
     20 C           6.0010   -1.7574    0.0000 C.ar    1  UNL1        0.1209
     21 C          10.7629   -0.3913    0.0000 C.ar    1  UNL1       -0.0514
     22 C           6.8671    0.7426    0.0000 C.2     1  UNL1       -0.0535
     23 C           8.6328    2.1927    0.0000 C.ar    1  UNL1        0.1206
     24 C          10.2791    1.6546    0.0000 C.ar    1  UNL1        0.1206
     25 C          11.7629   -2.1234    0.0000 C.ar    1  UNL1        0.1586
     26 C          11.7629   -0.3913    0.0000 C.ar    1  UNL1       -0.0162
     27 C           9.6113    2.3989    0.0000 C.ar    1  UNL1        0.0213
     28 C          12.2629   -1.2574    0.0000 C.ar    1  UNL1        0.1582
     29 C           6.0010    1.2426    0.0000 C.2     1  UNL1       -0.0540
     30 C           5.1350    0.7426    0.0000 C.ar    1  UNL1       -0.0248
     31 C           4.2690    1.2426    0.0000 C.ar    1  UNL1       -0.0511
     32 C           5.1350   -0.2574    0.0000 C.ar    1  UNL1       -0.0511
     33 C           3.4030    0.7426    0.0000 C.ar    1  UNL1       -0.0196
     34 C           4.2690   -0.7574    0.0000 C.ar    1  UNL1       -0.0196
     35 C           3.4030   -0.2574    0.0000 C.ar    1  UNL1        0.1169
     36 H           9.2918   -0.3564    0.0000 H       1  UNL1        0.0438
     37 H           9.5446   -1.8097    0.0000 H       1  UNL1        0.0794
     38 H           6.8671   -2.8774    0.0000 H       1  UNL1        0.0691
     39 H          10.3825    0.2426    0.0000 H       1  UNL1        0.0657
     40 H           7.7154    1.1143    0.0000 H       1  UNL1        0.0657
     41 H           5.4641   -0.4474    0.0000 H       1  UNL1        0.0660
     42 H          10.4529   -2.6603    0.0000 H       1  UNL1        0.0659
     43 H          10.4529    0.1456    0.0000 H       1  UNL1        0.0623
     44 H           7.4040    1.0526    0.0000 H       1  UNL1        0.0624
     45 H          12.0729    0.1456    0.0000 H       1  UNL1        0.0655
     46 H           9.8039    2.9883    0.0000 H       1  UNL1        0.0691
     47 H           6.0010    1.8626    0.0000 H       1  UNL1        0.0624
     48 H           5.1350   -2.8774    0.0000 H       1  UNL1        0.2921
     49 H           8.1576    3.5263    0.0000 H       1  UNL1        0.2921
     50 H          11.4503    2.4502    0.0000 H       1  UNL1        0.2921
     51 H          11.9529   -3.5263    0.0000 H       1  UNL1        0.2923
     52 H          13.5729   -0.7204    0.0000 H       1  UNL1        0.2923
     53 H           4.2690    1.8626    0.0000 H       1  UNL1        0.0625
     54 H           5.6720   -0.5674    0.0000 H       1  UNL1        0.0625
     55 H           2.8660    1.0526    0.0000 H       1  UNL1        0.0654
     56 H           4.2690   -1.3774    0.0000 H       1  UNL1        0.0654
     57 H           2.0000   -0.4474    0.0000 H       1  UNL1        0.2921
@<TRIPOS>BOND
     1     1     9    1
     2     1    11    1
     3     2    20    1
     4     2    48    1
     5     3    23    1
     6     3    49    1
     7     4    24    1
     8     4    50    1
     9     5    25    1
    10     5    51    1
    11     6    28    1
    12     6    52    1
    13     7    35    1
    14     7    57    1
    15     8     9    1
    16     8    10    1
    17     8    12    1
    18     8    36    1
    19     9    13    1
    20     9    37    1
    21    10    11   ar
    22    10    14   ar
    23    11    15   ar
    24    12    16   ar
    25    12    17   ar
    26    13    19   ar
    27    13    21   ar
    28    14    18   ar
    29    14    22    1
    30    15    20   ar
    31    15    38    1
    32    16    24   ar
    33    16    39    1
    34    17    23   ar
    35    17    40    1
    36    18    20   ar
    37    18    41    1
    38    19    25   ar
    39    19    42    1
    40    21    26   ar
    41    21    43    1
    42    22    29    2
    43    22    44    1
    44    23    27   ar
    45    24    27   ar
    46    25    28   ar
    47    26    28   ar
    48    26    45    1
    49    27    46    1
    50    29    30    1
    51    29    47    1
    52    30    31   ar
    53    30    32   ar
    54    31    33   ar
    55    31    53    1
    56    32    34   ar
    57    32    54    1
    58    33    35   ar
    59    33    55    1
    60    34    35   ar
    61    34    56    1
