@<TRIPOS>MOLECULE
IMPHY002594
 42 45 0 0 0
SMALL
GASTEIGER

@<TRIPOS>ATOM
      1 O           3.9061    1.0347    0.0000 O.3     1  UNL1       -0.4833
      2 O           2.1359   -1.0241    0.0000 O.3     1  UNL1       -0.3875
      3 O           7.4783    0.8047    0.0000 O.2     1  UNL1       -0.4547
      4 O          11.0619    1.7320    0.0000 O.3     1  UNL1       -0.5066
      5 O          11.0619   -1.7320    0.0000 O.3     1  UNL1       -0.5066
      6 C           3.0000    0.5208    0.0000 C.3     1  UNL1        0.1310
      7 C           3.0000   -0.5208    0.0000 C.3     1  UNL1        0.0983
      8 C           3.9061   -1.0347    0.0000 C.3     1  UNL1        0.0057
      9 C           4.8000   -0.5000    0.0000 C.ar    1  UNL1       -0.0023
     10 C           4.8000    0.5000    0.0000 C.ar    1  UNL1        0.1282
     11 C           2.0000    0.5247    0.0000 C.3     1  UNL1       -0.0227
     12 C           2.5033    1.3888    0.0000 C.3     1  UNL1       -0.0227
     13 C           5.6660   -1.0000    0.0000 C.ar    1  UNL1       -0.0442
     14 C           6.5320   -0.5000    0.0000 C.ar    1  UNL1        0.0213
     15 C           5.6660    1.0000    0.0000 C.ar    1  UNL1        0.0233
     16 C           6.5320    0.5000    0.0000 C.ar    1  UNL1        0.1392
     17 C           7.4783   -0.8047    0.0000 C.ar    1  UNL1       -0.0081
     18 C           8.0619    0.0000    0.0000 C.ar    1  UNL1        0.1365
     19 C           9.0619    0.0000    0.0000 C.ar    1  UNL1        0.0242
     20 C           9.5619   -0.8660    0.0000 C.ar    1  UNL1       -0.0093
     21 C           9.5619    0.8660    0.0000 C.ar    1  UNL1       -0.0093
     22 C          10.5619    0.8660    0.0000 C.ar    1  UNL1        0.1210
     23 C          10.5619   -0.8660    0.0000 C.ar    1  UNL1        0.1210
     24 C          11.0619    0.0000    0.0000 C.ar    1  UNL1        0.0213
     25 H           3.0036   -1.1408    0.0000 H       1  UNL1        0.0636
     26 H           3.5124   -1.5137    0.0000 H       1  UNL1        0.0341
     27 H           4.3107   -1.5044    0.0000 H       1  UNL1        0.0341
     28 H           2.0024    1.1447    0.0000 H       1  UNL1        0.0269
     29 H           3.0415    1.6967    0.0000 H       1  UNL1        0.0269
     30 H           2.1954    1.9269    0.0000 H       1  UNL1        0.0269
     31 H           1.9652    1.0808    0.0000 H       1  UNL1        0.0269
     32 H           1.3800    0.5271    0.0000 H       1  UNL1        0.0269
     33 H           1.9976   -0.0953    0.0000 H       1  UNL1        0.0269
     34 H           5.6660   -1.6200    0.0000 H       1  UNL1        0.0628
     35 H           5.6660    1.6200    0.0000 H       1  UNL1        0.0691
     36 H           2.1383   -1.6442    0.0000 H       1  UNL1        0.2100
     37 H           7.6709   -1.3940    0.0000 H       1  UNL1        0.0661
     38 H           9.2519   -1.4030    0.0000 H       1  UNL1        0.0661
     39 H           9.2519    1.4030    0.0000 H       1  UNL1        0.0661
     40 H          11.6819    0.0000    0.0000 H       1  UNL1        0.0691
     41 H          11.6819    1.7320    0.0000 H       1  UNL1        0.2921
     42 H          11.6819   -1.7320    0.0000 H       1  UNL1        0.2921
@<TRIPOS>BOND
     1     1     6    1
     2     1    10    1
     3     2     7    1
     4     2    36    1
     5     3    16   ar
     6     3    18   ar
     7     4    22    1
     8     4    41    1
     9     5    23    1
    10     5    42    1
    11     6     7    1
    12     6    11    1
    13     6    12    1
    14     7     8    1
    15     7    25    1
    16     8     9    1
    17     8    26    1
    18     8    27    1
    19     9    10   ar
    20     9    13   ar
    21    10    15   ar
    22    11    28    1
    23    11    32    1
    24    11    33    1
    25    12    29    1
    26    12    30    1
    27    12    31    1
    28    13    14   ar
    29    13    34    1
    30    14    16   ar
    31    14    17   ar
    32    15    16   ar
    33    15    35    1
    34    17    18   ar
    35    17    37    1
    36    18    19    1
    37    19    20   ar
    38    19    21   ar
    39    20    23   ar
    40    20    38    1
    41    21    22   ar
    42    21    39    1
    43    22    24   ar
    44    23    24   ar
    45    24    40    1
