@<TRIPOS>MOLECULE
IMPHY014452
 36 36 0 0 0
SMALL
GASTEIGER

@<TRIPOS>ATOM
      1 O           5.4641    4.2500    0.0000 O.3     1  VAL1       -0.4793
      2 OXT         6.3301    2.7500    0.0000 O.2     1  VAL1       -0.2489
      3 O           2.8660    1.7500    0.0000 O.2     0  UNK0       -0.2708
      4 O           2.8660   -4.2500    0.0000 O.3     0  UNK0       -0.5068
      5 N           4.5981    1.7500    0.0000 N.am    1  VAL1       -0.2986
      6 CB          3.7320    3.2500    0.0000 C.3     1  VAL1       -0.0179
      7 CA          4.5981    2.7500    0.0000 C.3     1  VAL1        0.1228
      8 CG1         3.7320    4.2500    0.0000 C.3     1  VAL1       -0.0605
      9 CG2         2.8660    2.7500    0.0000 C.3     1  VAL1       -0.0605
     10 C           5.4641    3.2500    0.0000 C.2     1  VAL1        0.3255
     11 C           3.7320    1.2500    0.0000 C.2     0  UNK0        0.2376
     12 C           3.7320    0.2500    0.0000 C.2     0  UNK0        0.0007
     13 C           2.8660   -0.2500    0.0000 C.2     0  UNK0       -0.0497
     14 C           2.8660   -1.2500    0.0000 C.ar    0  UNK0       -0.0247
     15 C           3.7320   -1.7500    0.0000 C.ar    0  UNK0       -0.0511
     16 C           2.0000   -1.7500    0.0000 C.ar    0  UNK0       -0.0511
     17 C           3.7320   -2.7500    0.0000 C.ar    0  UNK0       -0.0196
     18 C           2.0000   -2.7500    0.0000 C.ar    0  UNK0       -0.0196
     19 C           2.8660   -3.2500    0.0000 C.ar    0  UNK0        0.1169
     20 HB          3.7320    2.6300    0.0000 H       1  VAL1        0.0319
     21 HA          5.1350    2.4400    0.0000 H       1  VAL1        0.0617
     22 HG11        4.3520    4.2500    0.0000 H       1  VAL1        0.0233
     23 HG12        3.7320    4.8700    0.0000 H       1  VAL1        0.0233
     24 HG13        3.1120    4.2500    0.0000 H       1  VAL1        0.0233
     25 HG21        2.5560    3.2869    0.0000 H       1  VAL1        0.0233
     26 HG22        2.3291    2.4400    0.0000 H       1  VAL1        0.0233
     27 HG23        3.1760    2.2131    0.0000 H       1  VAL1        0.0233
     28 H           5.1350    1.4400    0.0000 H       1  VAL1        0.1498
     29 H           4.2690   -0.0600    0.0000 H       0  UNK0        0.0669
     30 H           2.3291    0.0600    0.0000 H       0  UNK0        0.0625
     31 H           6.0010    4.5600    0.0000 H       1  VAL1        0.2951
     32 H           4.2690   -1.4400    0.0000 H       0  UNK0        0.0625
     33 H           1.4631   -1.4400    0.0000 H       0  UNK0        0.0625
     34 H           4.2690   -3.0600    0.0000 H       0  UNK0        0.0654
     35 H           1.4631   -3.0600    0.0000 H       0  UNK0        0.0654
     36 H           2.3291   -4.5600    0.0000 H       0  UNK0        0.2921
@<TRIPOS>BOND
     1     1    10    1
     2     1    31    1
     3     2    10    2
     4     3    11    2
     5     4    19    1
     6     4    36    1
     7     7     5    1
     8     5    11   am
     9     5    28    1
    10     6     7    1
    11     6     8    1
    12     6     9    1
    13     6    20    1
    14     7    10    1
    15     7    21    1
    16     8    22    1
    17     8    23    1
    18     8    24    1
    19     9    25    1
    20     9    26    1
    21     9    27    1
    22    11    12    1
    23    12    13    2
    24    12    29    1
    25    13    14    1
    26    13    30    1
    27    14    15   ar
    28    14    16   ar
    29    15    17   ar
    30    15    32    1
    31    16    18   ar
    32    16    33    1
    33    17    19   ar
    34    17    34    1
    35    18    19   ar
    36    18    35    1
