@<TRIPOS>MOLECULE
IMPHY016680
 49 48 0 0 0
SMALL
GASTEIGER

@<TRIPOS>ATOM
      1 O          15.8564   -0.2500    0.0000 O.3     1  UNL1       -0.3950
      2 C          10.6603   -0.2500    0.0000 C.3     1  UNL1       -0.0531
      3 C          11.5263    0.2500    0.0000 C.3     1  UNL1       -0.0531
      4 C           9.7942    0.2500    0.0000 C.3     1  UNL1       -0.0530
      5 C           8.9282   -0.2500    0.0000 C.3     1  UNL1       -0.0528
      6 C          12.3923   -0.2500    0.0000 C.3     1  UNL1       -0.0530
      7 C           8.0622    0.2500    0.0000 C.3     1  UNL1       -0.0496
      8 C          13.2583    0.2500    0.0000 C.3     1  UNL1       -0.0510
      9 C           7.1962   -0.2500    0.0000 C.3     1  UNL1       -0.0348
     10 C          14.1244   -0.2500    0.0000 C.3     1  UNL1       -0.0297
     11 C           6.3301    0.2500    0.0000 C.2     1  UNL1       -0.0879
     12 C          14.9904    0.2500    0.0000 C.3     1  UNL1        0.0442
     13 C           4.5981    0.2500    0.0000 C.3     1  UNL1       -0.0348
     14 C           5.4641   -0.2500    0.0000 C.2     1  UNL1       -0.0879
     15 C           3.7320   -0.2500    0.0000 C.3     1  UNL1       -0.0499
     16 C           2.8660    0.2500    0.0000 C.3     1  UNL1       -0.0556
     17 C           2.0000   -0.2500    0.0000 C.3     1  UNL1       -0.0653
     18 H          10.2617   -0.7249    0.0000 H       1  UNL1        0.0265
     19 H          11.0588   -0.7249    0.0000 H       1  UNL1        0.0265
     20 H          11.9248    0.7249    0.0000 H       1  UNL1        0.0265
     21 H          11.1278    0.7249    0.0000 H       1  UNL1        0.0265
     22 H          10.1928    0.7249    0.0000 H       1  UNL1        0.0265
     23 H           9.3957    0.7249    0.0000 H       1  UNL1        0.0265
     24 H           8.5297   -0.7249    0.0000 H       1  UNL1        0.0265
     25 H           9.3267   -0.7249    0.0000 H       1  UNL1        0.0265
     26 H          11.9938   -0.7249    0.0000 H       1  UNL1        0.0265
     27 H          12.7908   -0.7249    0.0000 H       1  UNL1        0.0265
     28 H           8.4607    0.7249    0.0000 H       1  UNL1        0.0268
     29 H           7.6636    0.7249    0.0000 H       1  UNL1        0.0268
     30 H          13.6569    0.7249    0.0000 H       1  UNL1        0.0266
     31 H          12.8598    0.7249    0.0000 H       1  UNL1        0.0266
     32 H           6.7976   -0.7249    0.0000 H       1  UNL1        0.0307
     33 H           7.5947   -0.7249    0.0000 H       1  UNL1        0.0307
     34 H          13.7258   -0.7249    0.0000 H       1  UNL1        0.0287
     35 H          14.5229   -0.7249    0.0000 H       1  UNL1        0.0287
     36 H           6.3301    0.8700    0.0000 H       1  UNL1        0.0569
     37 H          15.3889    0.7249    0.0000 H       1  UNL1        0.0557
     38 H          14.5919    0.7249    0.0000 H       1  UNL1        0.0557
     39 H           4.9966    0.7249    0.0000 H       1  UNL1        0.0307
     40 H           4.1996    0.7249    0.0000 H       1  UNL1        0.0307
     41 H           3.3335   -0.7249    0.0000 H       1  UNL1        0.0268
     42 H           4.1306   -0.7249    0.0000 H       1  UNL1        0.0268
     43 H           5.4641   -0.8700    0.0000 H       1  UNL1        0.0569
     44 H           3.2646    0.7249    0.0000 H       1  UNL1        0.0263
     45 H           2.4675    0.7249    0.0000 H       1  UNL1        0.0263
     46 H           1.6900    0.2869    0.0000 H       1  UNL1        0.0230
     47 H           1.4631   -0.5600    0.0000 H       1  UNL1        0.0230
     48 H           2.3100   -0.7869    0.0000 H       1  UNL1        0.0230
     49 H          16.3933    0.0600    0.0000 H       1  UNL1        0.2094
@<TRIPOS>BOND
     1     1    12    1
     2     1    49    1
     3     2     3    1
     4     2     4    1
     5     2    18    1
     6     2    19    1
     7     3     6    1
     8     3    20    1
     9     3    21    1
    10     4     5    1
    11     4    22    1
    12     4    23    1
    13     5     7    1
    14     5    24    1
    15     5    25    1
    16     6     8    1
    17     6    26    1
    18     6    27    1
    19     7     9    1
    20     7    28    1
    21     7    29    1
    22     8    10    1
    23     8    30    1
    24     8    31    1
    25     9    11    1
    26     9    32    1
    27     9    33    1
    28    10    12    1
    29    10    34    1
    30    10    35    1
    31    11    14    2
    32    11    36    1
    33    12    37    1
    34    12    38    1
    35    13    14    1
    36    13    15    1
    37    13    39    1
    38    13    40    1
    39    14    43    1
    40    15    16    1
    41    15    41    1
    42    15    42    1
    43    16    17    1
    44    16    44    1
    45    16    45    1
    46    17    46    1
    47    17    47    1
    48    17    48    1
