@<TRIPOS>MOLECULE
IMPHY003544
 17 17 0 0 0
SMALL
GASTEIGER

@<TRIPOS>ATOM
      1 O           5.1630    0.5693    0.0000 O.2     1  UNL1       -0.2751
      2 O           4.2690   -1.2094    0.0000 O.2     1  UNL1       -0.2524
      3 N           3.4030    0.2906    0.0000 N.am    1  UNL1       -0.2262
      4 N           2.5369   -1.2094    0.0000 N.am    1  UNL1       -0.3129
      5 C           2.9030    1.8294    0.0000 C.3     1  UNL1       -0.0284
      6 C           2.5939    0.8784    0.0000 C.3     1  UNL1        0.0242
      7 C           3.9030    1.8294    0.0000 C.3     1  UNL1        0.0260
      8 C           4.2120    0.8784    0.0000 C.2     1  UNL1        0.2230
      9 C           3.4030   -0.7094    0.0000 C.2     1  UNL1        0.3059
     10 H           2.9678    2.4460    0.0000 H       1  UNL1        0.0285
     11 H           2.2965    1.9583    0.0000 H       1  UNL1        0.0285
     12 H           2.0276    1.1305    0.0000 H       1  UNL1        0.0470
     13 H           2.2839    0.3414    0.0000 H       1  UNL1        0.0470
     14 H           4.5094    1.9583    0.0000 H       1  UNL1        0.0359
     15 H           3.8382    2.4460    0.0000 H       1  UNL1        0.0359
     16 H           2.5369   -1.8294    0.0000 H       1  UNL1        0.1465
     17 H           2.0000   -0.8994    0.0000 H       1  UNL1        0.1465
@<TRIPOS>BOND
     1     1     8    2
     2     2     9    2
     3     3     6    1
     4     3     8   am
     5     3     9   am
     6     4     9   am
     7     4    16    1
     8     4    17    1
     9     5     6    1
    10     5     7    1
    11     5    10    1
    12     5    11    1
    13     6    12    1
    14     6    13    1
    15     7     8    1
    16     7    14    1
    17     7    15    1
