@<TRIPOS>MOLECULE
IMPHY016816
 58 57 0 0 0
SMALL
GASTEIGER

@<TRIPOS>ATOM
      1 O           5.8301    0.0560    0.0000 O.3     1  UNL1       -0.3885
      2 O           8.0622    1.1900    0.0000 O.3     1  UNL1       -0.3946
      3 C           6.3301   -0.8100    0.0000 C.3     1  UNL1        0.0688
      4 C           7.1962   -0.3100    0.0000 C.3     1  UNL1        0.0142
      5 C           5.4641   -1.3100    0.0000 C.3     1  UNL1       -0.0205
      6 C           8.0622   -0.8100    0.0000 C.3     1  UNL1       -0.0270
      7 C           6.8301   -1.6760    0.0000 C.3     1  UNL1       -0.0357
      8 C           7.1962    0.6900    0.0000 C.3     1  UNL1        0.0499
      9 C           4.5981   -0.8100    0.0000 C.3     1  UNL1       -0.0319
     10 C           8.9282   -0.3100    0.0000 C.2     1  UNL1       -0.0846
     11 C           9.7942   -0.8100    0.0000 C.2     1  UNL1       -0.0762
     12 C           3.7320   -1.3100    0.0000 C.2     1  UNL1       -0.0852
     13 C          10.6603   -0.3100    0.0000 C.3     1  UNL1       -0.0286
     14 C           2.8660   -0.8100    0.0000 C.2     1  UNL1       -0.0796
     15 C           9.7942   -1.8100    0.0000 C.3     1  UNL1       -0.0438
     16 C          11.5263   -0.8100    0.0000 C.3     1  UNL1       -0.0308
     17 C           2.0000   -1.3100    0.0000 C.3     1  UNL1       -0.0440
     18 C           2.8660    0.1900    0.0000 C.3     1  UNL1       -0.0440
     19 C          12.3923   -0.3100    0.0000 C.2     1  UNL1       -0.0850
     20 C          13.2583   -0.8100    0.0000 C.2     1  UNL1       -0.0796
     21 C          14.1244   -0.3100    0.0000 C.3     1  UNL1       -0.0440
     22 C          13.2583   -1.8100    0.0000 C.3     1  UNL1       -0.0440
     23 H           6.6592   -0.0000    0.0000 H       1  UNL1        0.0354
     24 H           5.0656   -1.7850    0.0000 H       1  UNL1        0.0296
     25 H           5.8626   -1.7850    0.0000 H       1  UNL1        0.0296
     26 H           7.6636   -1.2850    0.0000 H       1  UNL1        0.0312
     27 H           8.4607   -1.2850    0.0000 H       1  UNL1        0.0312
     28 H           6.2932   -1.9860    0.0000 H       1  UNL1        0.0257
     29 H           7.1401   -2.2130    0.0000 H       1  UNL1        0.0257
     30 H           7.3671   -1.3660    0.0000 H       1  UNL1        0.0257
     31 H           6.9841    1.2726    0.0000 H       1  UNL1        0.0561
     32 H           6.5856    0.5823    0.0000 H       1  UNL1        0.0561
     33 H           4.9966   -0.3351    0.0000 H       1  UNL1        0.0308
     34 H           4.1996   -0.3351    0.0000 H       1  UNL1        0.0308
     35 H           8.9282    0.3100    0.0000 H       1  UNL1        0.0572
     36 H           5.2101    0.0560    0.0000 H       1  UNL1        0.2102
     37 H           3.7320   -1.9300    0.0000 H       1  UNL1        0.0571
     38 H          11.0588    0.1649    0.0000 H       1  UNL1        0.0313
     39 H          10.2617    0.1649    0.0000 H       1  UNL1        0.0313
     40 H           8.0622    1.8100    0.0000 H       1  UNL1        0.2094
     41 H           9.1742   -1.8100    0.0000 H       1  UNL1        0.0274
     42 H           9.7942   -2.4300    0.0000 H       1  UNL1        0.0274
     43 H          10.4142   -1.8100    0.0000 H       1  UNL1        0.0274
     44 H          11.1278   -1.2850    0.0000 H       1  UNL1        0.0310
     45 H          11.9248   -1.2850    0.0000 H       1  UNL1        0.0310
     46 H           1.6900   -0.7731    0.0000 H       1  UNL1        0.0274
     47 H           1.4631   -1.6200    0.0000 H       1  UNL1        0.0274
     48 H           2.3100   -1.8469    0.0000 H       1  UNL1        0.0274
     49 H           3.4860    0.1900    0.0000 H       1  UNL1        0.0274
     50 H           2.8660    0.8100    0.0000 H       1  UNL1        0.0274
     51 H           2.2460    0.1900    0.0000 H       1  UNL1        0.0274
     52 H          12.3923    0.3100    0.0000 H       1  UNL1        0.0572
     53 H          14.4344   -0.8469    0.0000 H       1  UNL1        0.0274
     54 H          14.6613    0.0000    0.0000 H       1  UNL1        0.0274
     55 H          13.8144    0.2269    0.0000 H       1  UNL1        0.0274
     56 H          12.6383   -1.8100    0.0000 H       1  UNL1        0.0274
     57 H          13.2583   -2.4300    0.0000 H       1  UNL1        0.0274
     58 H          13.8783   -1.8100    0.0000 H       1  UNL1        0.0274
@<TRIPOS>BOND
     1     1     3    1
     2     1    36    1
     3     2     8    1
     4     2    40    1
     5     3     4    1
     6     3     5    1
     7     3     7    1
     8     4     6    1
     9     4     8    1
    10     4    23    1
    11     5     9    1
    12     5    24    1
    13     5    25    1
    14     6    10    1
    15     6    26    1
    16     6    27    1
    17     7    28    1
    18     7    29    1
    19     7    30    1
    20     8    31    1
    21     8    32    1
    22     9    12    1
    23     9    33    1
    24     9    34    1
    25    10    11    2
    26    10    35    1
    27    11    13    1
    28    11    15    1
    29    12    14    2
    30    12    37    1
    31    13    16    1
    32    13    38    1
    33    13    39    1
    34    14    17    1
    35    14    18    1
    36    15    41    1
    37    15    42    1
    38    15    43    1
    39    16    19    1
    40    16    44    1
    41    16    45    1
    42    17    46    1
    43    17    47    1
    44    17    48    1
    45    18    49    1
    46    18    50    1
    47    18    51    1
    48    19    20    2
    49    19    52    1
    50    20    21    1
    51    20    22    1
    52    21    53    1
    53    21    54    1
    54    21    55    1
    55    22    56    1
    56    22    57    1
    57    22    58    1
