@<TRIPOS>MOLECULE
IMPHY014486
 75 80 0 0 0
SMALL
GASTEIGER

@<TRIPOS>ATOM
      1 O           8.2565   -0.7929    0.0000 O.3     1  UNL1       -0.3877
      2 O           6.1234   -2.0171    0.0000 O.3     1  UNL1       -0.3790
      3 O           4.9163    1.8001    0.0000 O.3     1  UNL1       -0.3791
      4 O           7.0415    3.1120    0.0000 O.3     1  UNL1       -0.3834
      5 O           8.6331    1.3743    0.0000 O.3     1  UNL1       -0.3885
      6 O           9.0340    2.2581    0.0000 O.3     1  UNL1       -0.3767
      7 O           3.1654   -0.4700    0.0000 O.3     1  UNL1       -0.3910
      8 O           4.0503   -2.4350    0.0000 O.3     1  UNL1       -0.3823
      9 N           3.7210   -0.0289    0.0000 N.3     1  UNL1       -0.2979
     10 C           5.6676    0.3663    0.0000 C.3     1  UNL1        0.0222
     11 C           5.6676   -0.5013    0.0000 C.3     1  UNL1        0.0067
     12 C           6.3459    0.9073    0.0000 C.3     1  UNL1       -0.0206
     13 C           4.6656    0.2603    0.0000 C.3     1  UNL1        0.0268
     14 C           7.1918   -0.8491    0.0000 C.3     1  UNL1        0.0310
     15 C           7.1918    0.7142    0.0000 C.3     1  UNL1        0.0207
     16 C           7.5682   -0.0675    0.0000 C.3     1  UNL1        0.0807
     17 C           6.3459   -1.0422    0.0000 C.3     1  UNL1        0.0694
     18 C           4.9163   -0.9350    0.0000 C.3     1  UNL1        0.0386
     19 C           4.9163    0.8001    0.0000 C.3     1  UNL1        0.0683
     20 C           6.2682    1.7713    0.0000 C.3     1  UNL1       -0.0152
     21 C           7.0659    2.1123    0.0000 C.3     1  UNL1        0.1184
     22 C           7.6367    1.4590    0.0000 C.3     1  UNL1        0.0920
     23 C           8.2131    0.2025    0.0000 C.3     1  UNL1        0.0059
     24 C           3.7210   -0.7808    0.0000 C.3     1  UNL1        0.0097
     25 C           4.1649   -0.5013    0.0000 C.3     1  UNL1        0.0668
     26 C           8.2131    1.6870    0.0000 C.3     1  UNL1        0.0920
     27 C           4.1649    0.3663    0.0000 C.3     1  UNL1        0.0008
     28 C           4.9163   -1.9350    0.0000 C.3     1  UNL1        0.0568
     29 C           2.9170    0.5658    0.0000 C.3     1  UNL1       -0.0036
     30 C           6.8564   -2.6973    0.0000 C.3     1  UNL1        0.0368
     31 C           2.0000    0.1669    0.0000 C.3     1  UNL1       -0.0523
     32 C           4.0502    2.3001    0.0000 C.3     1  UNL1        0.0368
     33 C           8.9498    3.2545    0.0000 C.3     1  UNL1        0.0369
     34 C           4.0503   -3.4350    0.0000 C.3     1  UNL1        0.0365
     35 H           5.6041   -1.3489    0.0000 H       1  UNL1        0.0340
     36 H           5.7758    1.1509    0.0000 H       1  UNL1        0.0313
     37 H           4.5417    0.8678    0.0000 H       1  UNL1        0.0473
     38 H           7.5783   -1.3339    0.0000 H       1  UNL1        0.0369
     39 H           8.0409    0.6761    0.0000 H       1  UNL1        0.0357
     40 H           6.7843   -1.4806    0.0000 H       1  UNL1        0.0603
     41 H           5.4532    1.1101    0.0000 H       1  UNL1        0.0603
     42 H           6.0854    2.3638    0.0000 H       1  UNL1        0.0298
     43 H           5.6598    1.6515    0.0000 H       1  UNL1        0.0298
     44 H           7.9168    2.0121    0.0000 H       1  UNL1        0.0627
     45 H           8.3750   -0.3960    0.0000 H       1  UNL1        0.0319
     46 H           8.8277    0.2841    0.0000 H       1  UNL1        0.0319
     47 H           3.1015   -0.7543    0.0000 H       1  UNL1        0.0434
     48 H           3.6680   -1.3985    0.0000 H       1  UNL1        0.0434
     49 H           3.9952   -1.0976    0.0000 H       1  UNL1        0.0601
     50 H           8.1349    2.3020    0.0000 H       1  UNL1        0.0626
     51 H           3.9529    0.9489    0.0000 H       1  UNL1        0.0315
     52 H           3.5544    0.2587    0.0000 H       1  UNL1        0.0315
     53 H           5.1283   -2.5176    0.0000 H       1  UNL1        0.0566
     54 H           5.5269   -1.8274    0.0000 H       1  UNL1        0.0566
     55 H           8.8594   -0.6481    0.0000 H       1  UNL1        0.2102
     56 H           3.3666    0.9926    0.0000 H       1  UNL1        0.0424
     57 H           2.5747    1.0827    0.0000 H       1  UNL1        0.0424
     58 H           7.5707    3.4350    0.0000 H       1  UNL1        0.2104
     59 H           8.8966    0.8130    0.0000 H       1  UNL1        0.2099
     60 H           2.8388   -0.9970    0.0000 H       1  UNL1        0.2098
     61 H           6.4348   -3.1518    0.0000 H       1  UNL1        0.0524
     62 H           7.3110   -3.1190    0.0000 H       1  UNL1        0.0524
     63 H           7.2782   -2.2428    0.0000 H       1  UNL1        0.0524
     64 H           1.7527    0.7354    0.0000 H       1  UNL1        0.0242
     65 H           1.4315   -0.0805    0.0000 H       1  UNL1        0.0242
     66 H           2.2473   -0.4017    0.0000 H       1  UNL1        0.0242
     67 H           4.3602    2.8370    0.0000 H       1  UNL1        0.0524
     68 H           3.5133    2.6101    0.0000 H       1  UNL1        0.0524
     69 H           3.7402    1.7632    0.0000 H       1  UNL1        0.0524
     70 H           9.5676    3.3067    0.0000 H       1  UNL1        0.0524
     71 H           8.8976    3.8723    0.0000 H       1  UNL1        0.0524
     72 H           8.3320    3.2024    0.0000 H       1  UNL1        0.0524
     73 H           3.4303   -3.4350    0.0000 H       1  UNL1        0.0523
     74 H           4.0503   -4.0550    0.0000 H       1  UNL1        0.0523
     75 H           4.6703   -3.4350    0.0000 H       1  UNL1        0.0523
@<TRIPOS>BOND
     1    16     1    1
     2     1    55    1
     3     2    17    1
     4     2    30    1
     5     3    19    1
     6     3    32    1
     7    21     4    1
     8     4    58    1
     9     5    22    1
    10     5    59    1
    11    26     6    1
    12     6    33    1
    13     7    25    1
    14     7    60    1
    15     8    28    1
    16     8    34    1
    17     9    13    1
    18     9    24    1
    19     9    29    1
    20    10    11    1
    21    10    12    1
    22    10    13    1
    23    10    19    1
    24    11    17    1
    25    11    18    1
    26    11    35    1
    27    12    15    1
    28    12    20    1
    29    12    36    1
    30    13    14    1
    31    13    37    1
    32    14    16    1
    33    14    17    1
    34    14    38    1
    35    15    16    1
    36    15    22    1
    37    15    39    1
    38    16    23    1
    39    17    40    1
    40    18    24    1
    41    18    25    1
    42    18    28    1
    43    19    27    1
    44    19    41    1
    45    20    21    1
    46    20    42    1
    47    20    43    1
    48    21    22    1
    49    21    26    1
    50    22    44    1
    51    23    26    1
    52    23    45    1
    53    23    46    1
    54    24    47    1
    55    24    48    1
    56    25    27    1
    57    25    49    1
    58    26    50    1
    59    27    51    1
    60    27    52    1
    61    28    53    1
    62    28    54    1
    63    29    31    1
    64    29    56    1
    65    29    57    1
    66    30    61    1
    67    30    62    1
    68    30    63    1
    69    31    64    1
    70    31    65    1
    71    31    66    1
    72    32    67    1
    73    32    68    1
    74    32    69    1
    75    33    70    1
    76    33    71    1
    77    33    72    1
    78    34    73    1
    79    34    74    1
    80    34    75    1
