@<TRIPOS>MOLECULE
IMPHY017573
 14 14 0 0 0
SMALL
GASTEIGER

@<TRIPOS>ATOM
      1 S           3.7601   -1.1739    0.0000 S.2     1  UNL1       -0.0804
      2 N           4.2601    0.3649    0.0000 N.ar    1  UNL1       -0.2524
      3 C           2.9511   -0.5861    0.0000 C.ar    1  UNL1        0.0091
      4 C           3.2601    0.3649    0.0000 C.ar    1  UNL1        0.0482
      5 C           2.0000   -0.8952    0.0000 C.3     1  UNL1       -0.0317
      6 C           2.6723    1.1739    0.0000 C.3     1  UNL1       -0.0216
      7 C           4.5691   -0.5861    0.0000 C.ar    1  UNL1        0.0652
      8 H           1.8084   -0.3055    0.0000 H       1  UNL1        0.0283
      9 H           1.4103   -1.0868    0.0000 H       1  UNL1        0.0283
     10 H           2.1916   -1.4848    0.0000 H       1  UNL1        0.0283
     11 H           3.1739    1.5384    0.0000 H       1  UNL1        0.0293
     12 H           2.3079    1.6755    0.0000 H       1  UNL1        0.0293
     13 H           2.1707    0.8095    0.0000 H       1  UNL1        0.0293
     14 H           5.1588   -0.7777    0.0000 H       1  UNL1        0.0907
@<TRIPOS>BOND
     1     1     3   ar
     2     1     7   ar
     3     2     4   ar
     4     2     7   ar
     5     3     4   ar
     6     3     5    1
     7     4     6    1
     8     5     8    1
     9     5     9    1
    10     5    10    1
    11     6    11    1
    12     6    12    1
    13     6    13    1
    14     7    14    1
