@<TRIPOS>MOLECULE
IMPHY001636
 34 36 0 0 0
SMALL
GASTEIGER

@<TRIPOS>ATOM
      1 O           2.9789   -2.7222    0.0000 O.3     1  UNL1       -0.4951
      2 O          10.2225    2.1304    0.0000 O.3     1  UNL1       -0.4806
      3 O           8.5691    2.6465    0.0000 O.2     1  UNL1       -0.2510
      4 N           5.8507    0.1384    0.0000 N.ar    1  UNL1       -0.3527
      5 N           8.3780   -0.9858    0.0000 N.ar    1  UNL1       -0.2578
      6 C           6.6597   -0.4494    0.0000 C.ar    1  UNL1        0.0691
      7 C           6.3507   -1.4005    0.0000 C.ar    1  UNL1        0.0107
      8 C           5.3507   -1.4005    0.0000 C.ar    1  UNL1        0.0109
      9 C           5.0417   -0.4494    0.0000 C.ar    1  UNL1        0.0477
     10 C           7.6751   -0.2172    0.0000 C.ar    1  UNL1        0.0656
     11 C           7.9731    0.7374    0.0000 C.3     1  UNL1        0.0017
     12 C           7.0356   -2.1852    0.0000 C.ar    1  UNL1       -0.0338
     13 C           4.6657   -2.1852    0.0000 C.ar    1  UNL1       -0.0102
     14 C           4.0263   -0.2172    0.0000 C.ar    1  UNL1       -0.0343
     15 C           8.9488    0.9566    0.0000 C.3     1  UNL1        0.0502
     16 C           3.6452   -1.9765    0.0000 C.ar    1  UNL1        0.1208
     17 C           8.0562   -1.9765    0.0000 C.ar    1  UNL1        0.0286
     18 C           3.3233   -0.9858    0.0000 C.ar    1  UNL1       -0.0180
     19 C           9.2468    1.9112    0.0000 C.2     1  UNL1        0.3051
     20 C           2.0000   -2.5181    0.0000 C.3     1  UNL1        0.0788
     21 H           5.8507    0.7584    0.0000 H       1  UNL1        0.1660
     22 H           7.9443    1.3567    0.0000 H       1  UNL1        0.0334
     23 H           7.3582    0.8166    0.0000 H       1  UNL1        0.0334
     24 H           6.8372   -2.7726    0.0000 H       1  UNL1        0.0639
     25 H           4.8641   -2.7726    0.0000 H       1  UNL1        0.0661
     26 H           3.8415    0.3747    0.0000 H       1  UNL1        0.0639
     27 H           8.9776    0.3373    0.0000 H       1  UNL1        0.0381
     28 H           9.5637    0.8774    0.0000 H       1  UNL1        0.0381
     29 H           8.4692   -2.4388    0.0000 H       1  UNL1        0.0830
     30 H           2.7174   -0.8546    0.0000 H       1  UNL1        0.0655
     31 H           2.1266   -1.9111    0.0000 H       1  UNL1        0.0660
     32 H           1.3931   -2.3915    0.0000 H       1  UNL1        0.0660
     33 H           1.8734   -3.1250    0.0000 H       1  UNL1        0.0660
     34 H          10.4072    2.7222    0.0000 H       1  UNL1        0.2951
@<TRIPOS>BOND
     1     1    16    1
     2     1    20    1
     3     2    19    1
     4     2    34    1
     5     3    19    2
     6     4     6   ar
     7     4     9   ar
     8     4    21    1
     9     5    10   ar
    10     5    17   ar
    11     6     7   ar
    12     6    10   ar
    13     7     8   ar
    14     7    12   ar
    15     8     9   ar
    16     8    13   ar
    17     9    14   ar
    18    10    11    1
    19    11    15    1
    20    11    22    1
    21    11    23    1
    22    12    17   ar
    23    12    24    1
    24    13    16   ar
    25    13    25    1
    26    14    18   ar
    27    14    26    1
    28    15    19    1
    29    15    27    1
    30    15    28    1
    31    16    18   ar
    32    17    29    1
    33    18    30    1
    34    20    31    1
    35    20    32    1
    36    20    33    1
