@<TRIPOS>MOLECULE
IMPHY005955
 15 15 0 0 0
SMALL
GASTEIGER

@<TRIPOS>ATOM
      1 S           5.4543   -0.7694    0.0000 S.2     1  UNL1       -0.0391
      2 O           3.6942   -0.4907    0.0000 O.3     1  UNL1       -0.4842
      3 N           5.9543    0.7694    0.0000 N.ar    1  UNL1       -0.2519
      4 C           2.9511    0.1785    0.0000 C.3     1  UNL1        0.0875
      5 C           2.0000   -0.1305    0.0000 C.3     1  UNL1       -0.0307
      6 C           4.6453   -0.1816    0.0000 C.ar    1  UNL1        0.1779
      7 C           4.9543    0.7694    0.0000 C.ar    1  UNL1        0.0769
      8 C           6.2633   -0.1816    0.0000 C.ar    1  UNL1        0.0682
      9 H           3.4396    0.5602    0.0000 H       1  UNL1        0.0694
     10 H           2.6600    0.7259    0.0000 H       1  UNL1        0.0694
     11 H           1.8084    0.4591    0.0000 H       1  UNL1        0.0262
     12 H           1.4103   -0.3221    0.0000 H       1  UNL1        0.0262
     13 H           2.1916   -0.7202    0.0000 H       1  UNL1        0.0262
     14 H           4.5898    1.2710    0.0000 H       1  UNL1        0.0873
     15 H           6.8530   -0.3732    0.0000 H       1  UNL1        0.0908
@<TRIPOS>BOND
     1     1     6   ar
     2     1     8   ar
     3     2     4    1
     4     2     6    1
     5     3     7   ar
     6     3     8   ar
     7     4     5    1
     8     4     9    1
     9     4    10    1
    10     5    11    1
    11     5    12    1
    12     5    13    1
    13     6     7   ar
    14     7    14    1
    15     8    15    1
