@<TRIPOS>MOLECULE
IMPHY000644
 56 64 0 0 0
SMALL
GASTEIGER

@<TRIPOS>ATOM
      1 O          13.7749  -16.3558    0.0000 O.3     1  UNL1       -0.2865
      2 C          14.6410  -16.8557    0.0000 C.ar    1  UNL1        0.1988
      3 C          15.5071  -18.3558    0.0000 C.ar    1  UNL1        0.0060
      4 C          14.6410  -17.8558    0.0000 C.ar    1  UNL1        0.0420
      5 C          17.2391  -18.3558    0.0000 C.3     1  UNL1        0.1981
      6 C          16.3730  -17.8558    0.0000 C.ar    1  UNL1        0.0564
      7 C          18.1052  -17.8558    0.0000 C.ar    1  UNL1        0.0564
      8 C          16.3730  -16.8557    0.0000 C.ar    1  UNL1        0.1483
      9 C          18.1052  -16.8557    0.0000 C.ar    1  UNL1        0.1483
     10 C          18.9711  -18.3558    0.0000 C.ar    1  UNL1        0.0060
     11 C          15.5071  -16.3558    0.0000 C.ar    1  UNL1        0.0793
     12 O          17.2391  -16.3558    0.0000 O.3     1  UNL1       -0.4537
     13 C          18.9711  -16.3558    0.0000 C.ar    1  UNL1        0.0793
     14 C          19.8372  -17.8558    0.0000 C.ar    1  UNL1        0.0420
     15 C          19.8372  -16.8557    0.0000 C.ar    1  UNL1        0.1988
     16 O          20.7032  -16.3558    0.0000 O.3     1  UNL1       -0.2865
     17 C          16.7391  -19.8947    0.0000 C.2     1  UNL1        0.3417
     18 O          16.4301  -18.9435    0.0000 O.3     1  UNL1       -0.4397
     19 C          17.7391  -19.8947    0.0000 C.ar    1  UNL1        0.0756
     20 C          18.0481  -18.9435    0.0000 C.ar    1  UNL1        0.0282
     21 C          19.0262  -18.7356    0.0000 C.ar    1  UNL1        0.0065
     22 C          18.4082  -20.6378    0.0000 C.ar    1  UNL1        0.0065
     23 O          16.1513  -20.7037    0.0000 O.2     1  UNL1       -0.2449
     24 C          19.3863  -20.4298    0.0000 C.ar    1  UNL1        0.0068
     25 C          19.6954  -19.4788    0.0000 C.ar    1  UNL1        0.0796
     26 C          20.6953  -19.4788    0.0000 C.2     1  UNL1        0.3877
     27 O          20.9541  -20.4447    0.0000 O.co2   1  UNL1       -0.2406
     28 O          21.4025  -18.7716    0.0000 O.co2   1  UNL1       -0.2406
     29 O           4.3381  -16.2227    0.0000 O.3     2  UNL2       -0.2865
     30 C           5.2041  -16.7227    0.0000 C.ar    2  UNL2        0.1988
     31 C           6.0703  -18.2227    0.0000 C.ar    2  UNL2        0.0060
     32 C           5.2041  -17.7227    0.0000 C.ar    2  UNL2        0.0420
     33 C           7.8023  -18.2227    0.0000 C.3     2  UNL2        0.1981
     34 C           6.9362  -17.7227    0.0000 C.ar    2  UNL2        0.0564
     35 C           8.6683  -17.7227    0.0000 C.ar    2  UNL2        0.0564
     36 C           6.9362  -16.7227    0.0000 C.ar    2  UNL2        0.1483
     37 C           8.6683  -16.7227    0.0000 C.ar    2  UNL2        0.1483
     38 C           9.5343  -18.2227    0.0000 C.ar    2  UNL2        0.0060
     39 C           6.0703  -16.2227    0.0000 C.ar    2  UNL2        0.0793
     40 O           7.8023  -16.2227    0.0000 O.3     2  UNL2       -0.4537
     41 C           9.5343  -16.2227    0.0000 C.ar    2  UNL2        0.0793
     42 C          10.4003  -17.7227    0.0000 C.ar    2  UNL2        0.0420
     43 C          10.4003  -16.7227    0.0000 C.ar    2  UNL2        0.1988
     44 O          11.2664  -16.2227    0.0000 O.3     2  UNL2       -0.2865
     45 C           7.3023  -19.7616    0.0000 C.2     2  UNL2        0.3417
     46 O           6.9933  -18.8104    0.0000 O.3     2  UNL2       -0.4397
     47 C           8.3022  -19.7616    0.0000 C.ar    2  UNL2        0.0758
     48 C           8.6112  -18.8104    0.0000 C.ar    2  UNL2        0.0280
     49 C           9.5894  -18.6025    0.0000 C.ar    2  UNL2        0.0001
     50 C           8.9713  -20.5047    0.0000 C.ar    2  UNL2        0.0128
     51 O           6.7145  -20.5706    0.0000 O.2     2  UNL2       -0.2449
     52 C           9.9495  -20.2967    0.0000 C.ar    2  UNL2        0.0800
     53 C          10.2585  -19.3457    0.0000 C.ar    2  UNL2        0.0064
     54 C          10.6567  -21.0039    0.0000 C.2     2  UNL2        0.3878
     55 O          11.6567  -21.0039    0.0000 O.co2   2  UNL2       -0.2406
     56 O          10.1566  -21.8699    0.0000 O.co2   2  UNL2       -0.2406
@<TRIPOS>BOND
     1     2     1    1
     2     4     2   ar
     3     3     4   ar
     4    18     5    1
     5     5    20    1
     6     6     3   ar
     7     5     6    1
     8     5     7    1
     9     6     8   ar
    10     7     9   ar
    11     7    10   ar
    12    11     2   ar
    13     8    11   ar
    14     9    12    1
    15     8    12    1
    16     9    13   ar
    17    10    14   ar
    18    13    15   ar
    19    14    15   ar
    20    15    16    1
    21    17    18    1
    22    19    17    1
    23    17    23    2
    24    19    20   ar
    25    22    19   ar
    26    20    21   ar
    27    21    25   ar
    28    25    24   ar
    29    24    22   ar
    30    25    26    1
    31    26    28   ar
    32    26    27   ar
    33    30    29    1
    34    32    30   ar
    35    31    32   ar
    36    46    33    1
    37    33    48    1
    38    34    31   ar
    39    33    34    1
    40    33    35    1
    41    34    36   ar
    42    35    37   ar
    43    35    38   ar
    44    39    30   ar
    45    36    39   ar
    46    37    40    1
    47    36    40    1
    48    37    41   ar
    49    38    42   ar
    50    41    43   ar
    51    42    43   ar
    52    43    44    1
    53    45    46    1
    54    47    45    1
    55    45    51    2
    56    47    48   ar
    57    50    47   ar
    58    48    49   ar
    59    49    53   ar
    60    53    52   ar
    61    52    50   ar
    62    52    54    1
    63    54    55   ar
    64    54    56   ar
