@<TRIPOS>MOLECULE
IMPHY013220
 75 80 0 0 0
SMALL
GASTEIGER

@<TRIPOS>ATOM
      1 O           2.0000    2.5775    0.0000 O.3     1  UNL1       -0.3649
      2 O           2.8544    1.0427    0.0000 O.3     1  UNL1       -0.3877
      3 O           2.8665    4.0775    0.0000 O.3     1  UNL1       -0.3846
      4 O           4.3015   -2.4138    0.0000 O.3     1  UNL1       -0.3849
      5 O           6.3688    3.0744    0.0000 O.2     1  UNL1       -0.2920
      6 O           5.3950   -3.4493    0.0000 O.3     1  UNL1       -0.4582
      7 O           5.7391   -5.1468    0.0000 O.2     1  UNL1       -0.2505
      8 C           3.7326    1.5775    0.0000 C.3     1  UNL1        0.0210
      9 C           3.7165    0.5360    0.0000 C.3     1  UNL1        0.0773
     10 C           4.6145    0.0083    0.0000 C.3     1  UNL1        0.0026
     11 C           4.5986    2.0775    0.0000 C.3     1  UNL1       -0.0179
     12 C           2.8665    2.0775    0.0000 C.3     1  UNL1        0.0938
     13 C           2.8665    3.0775    0.0000 C.3     1  UNL1        0.1153
     14 C           4.5986    3.0775    0.0000 C.3     1  UNL1        0.0648
     15 C           3.7326    3.5775    0.0000 C.3     1  UNL1        0.1104
     16 C           4.3888   -1.0023    0.0000 C.3     1  UNL1       -0.0008
     17 C           5.5166    0.5291    0.0000 C.3     1  UNL1       -0.0444
     18 C           5.5086    1.5707    0.0000 C.3     1  UNL1       -0.0482
     19 C           2.9435   -0.1529    0.0000 C.3     1  UNL1       -0.0228
     20 C           3.3582   -1.1017    0.0000 C.3     1  UNL1       -0.0443
     21 C           5.0509   -1.7517    0.0000 C.3     1  UNL1        0.1034
     22 C           5.4767   -0.4984    0.0000 C.3     1  UNL1       -0.0566
     23 C           3.7165    4.6190    0.0000 C.3     1  UNL1       -0.0019
     24 C           5.4646    2.5775    0.0000 C.3     1  UNL1       -0.0495
     25 C           5.5086    3.5844    0.0000 C.2     1  UNL1        0.1647
     26 C           5.7130   -2.5012    0.0000 C.3     1  UNL1        0.1318
     27 C           4.6145    5.1468    0.0000 C.2     1  UNL1       -0.0779
     28 C           5.5166    4.6260    0.0000 C.2     1  UNL1       -0.0224
     29 C           5.8003   -1.0896    0.0000 C.3     1  UNL1       -0.0323
     30 C           6.6931   -2.3025    0.0000 C.3     1  UNL1       -0.0096
     31 C           7.3552   -3.0519    0.0000 C.3     1  UNL1       -0.0278
     32 C           7.0372   -4.0000    0.0000 C.3     1  UNL1        0.0563
     33 C           6.0571   -4.1987    0.0000 C.2     1  UNL1        0.3105
     34 C           8.3352   -2.8532    0.0000 C.3     1  UNL1       -0.0616
     35 C           7.6993   -4.7494    0.0000 C.3     1  UNL1       -0.0520
     36 H           4.2671    1.2634    0.0000 H       1  UNL1        0.0358
     37 H           5.1331    2.3916    0.0000 H       1  UNL1        0.0316
     38 H           2.5566    1.5406    0.0000 H       1  UNL1        0.0627
     39 H           2.5566    3.6145    0.0000 H       1  UNL1        0.0651
     40 H           4.1614   -1.5791    0.0000 H       1  UNL1        0.0336
     41 H           5.7302   -0.0530    0.0000 H       1  UNL1        0.0272
     42 H           6.1266    0.6399    0.0000 H       1  UNL1        0.0272
     43 H           6.1202    1.4693    0.0000 H       1  UNL1        0.0269
     44 H           5.7131    2.1560    0.0000 H       1  UNL1        0.0269
     45 H           2.5819    0.3508    0.0000 H       1  UNL1        0.0293
     46 H           2.4046   -0.4595    0.0000 H       1  UNL1        0.0293
     47 H           2.7671   -1.2889    0.0000 H       1  UNL1        0.0270
     48 H           3.4822   -1.7092    0.0000 H       1  UNL1        0.0270
     49 H           5.1626   -1.0329    0.0000 H       1  UNL1        0.0236
     50 H           6.0112   -0.8125    0.0000 H       1  UNL1        0.0236
     51 H           5.7908    0.0361    0.0000 H       1  UNL1        0.0236
     52 H           3.4985    5.1994    0.0000 H       1  UNL1        0.0336
     53 H           3.1074    4.5035    0.0000 H       1  UNL1        0.0336
     54 H           5.1546    2.0406    0.0000 H       1  UNL1        0.0240
     55 H           6.0016    2.2675    0.0000 H       1  UNL1        0.0240
     56 H           5.7746    3.1145    0.0000 H       1  UNL1        0.0240
     57 H           2.3150    0.7368    0.0000 H       1  UNL1        0.2102
     58 H           2.8665    4.6975    0.0000 H       1  UNL1        0.2103
     59 H           5.1054   -2.6243    0.0000 H       1  UNL1        0.0763
     60 H           4.6122    5.7668    0.0000 H       1  UNL1        0.0574
     61 H           6.0548    4.9339    0.0000 H       1  UNL1        0.0649
     62 H           6.2108   -1.5543    0.0000 H       1  UNL1        0.0259
     63 H           6.2650   -0.6792    0.0000 H       1  UNL1        0.0259
     64 H           5.3898   -0.6250    0.0000 H       1  UNL1        0.0259
     65 H           3.7137   -2.2167    0.0000 H       1  UNL1        0.2103
     66 H           7.2219   -1.9789    0.0000 H       1  UNL1        0.0305
     67 H           6.4662   -1.7255    0.0000 H       1  UNL1        0.0305
     68 H           7.7656   -3.5166    0.0000 H       1  UNL1        0.0307
     69 H           6.8400   -4.5878    0.0000 H       1  UNL1        0.0413
     70 H           8.4584   -3.4609    0.0000 H       1  UNL1        0.0233
     71 H           8.9429   -2.7301    0.0000 H       1  UNL1        0.0233
     72 H           8.2120   -2.2456    0.0000 H       1  UNL1        0.0233
     73 H           7.2346   -5.1599    0.0000 H       1  UNL1        0.0238
     74 H           8.1098   -5.2141    0.0000 H       1  UNL1        0.0238
     75 H           8.1639   -4.3390    0.0000 H       1  UNL1        0.0238
@<TRIPOS>BOND
     1     1    12    1
     2     1    13    1
     3     2     9    1
     4     2    57    1
     5     3    15    1
     6     3    58    1
     7     4    21    1
     8     4    65    1
     9     5    25    2
    10     6    26    1
    11     6    33    1
    12     7    33    2
    13     8     9    1
    14     8    11    1
    15     8    12    1
    16     8    36    1
    17     9    10    1
    18     9    19    1
    19    10    16    1
    20    10    17    1
    21    10    22    1
    22    11    14    1
    23    11    18    1
    24    11    37    1
    25    12    13    1
    26    12    38    1
    27    13    15    1
    28    13    39    1
    29    14    15    1
    30    14    24    1
    31    14    25    1
    32    15    23    1
    33    16    20    1
    34    16    21    1
    35    16    40    1
    36    17    18    1
    37    17    41    1
    38    17    42    1
    39    18    43    1
    40    18    44    1
    41    19    20    1
    42    19    45    1
    43    19    46    1
    44    20    47    1
    45    20    48    1
    46    21    26    1
    47    21    29    1
    48    22    49    1
    49    22    50    1
    50    22    51    1
    51    23    27    1
    52    23    52    1
    53    23    53    1
    54    24    54    1
    55    24    55    1
    56    24    56    1
    57    25    28    1
    58    26    30    1
    59    26    59    1
    60    27    28    2
    61    27    60    1
    62    28    61    1
    63    29    62    1
    64    29    63    1
    65    29    64    1
    66    30    31    1
    67    30    66    1
    68    30    67    1
    69    31    32    1
    70    31    34    1
    71    31    68    1
    72    32    33    1
    73    32    35    1
    74    32    69    1
    75    34    70    1
    76    34    71    1
    77    34    72    1
    78    35    73    1
    79    35    74    1
    80    35    75    1
