@<TRIPOS>MOLECULE
IMPHY009266
 118 125 0 0 0
SMALL
GASTEIGER

@<TRIPOS>ATOM
      1 O          12.0235    1.5019    0.0000 O.3     1  UNL1       -0.3448
      2 O          11.8816   -0.4785    0.0000 O.3     1  UNL1       -0.3480
      3 O           6.0010    1.3679    0.0000 O.3     1  UNL1       -0.3445
      4 O           4.2178    4.5122    0.0000 O.3     1  UNL1       -0.3914
      5 O           4.2690    1.3679    0.0000 O.3     1  UNL1       -0.3431
      6 O           6.0010   -0.6321    0.0000 O.3     1  UNL1       -0.3377
      7 O           4.2690   -1.6321    0.0000 O.3     1  UNL1       -0.3864
      8 O           2.5369   -0.6321    0.0000 O.3     1  UNL1       -0.3866
      9 O           5.1350   -2.1321    0.0000 O.3     1  UNL1       -0.3430
     10 O           7.7331   -1.6321    0.0000 O.3     1  UNL1       -0.3830
     11 O           7.7331   -3.6321    0.0000 O.3     1  UNL1       -0.4560
     12 O           6.0010   -4.6321    0.0000 O.3     1  UNL1       -0.3855
     13 O           6.8671   -5.1321    0.0000 O.2     1  UNL1       -0.2512
     14 C           9.5511    1.3565    0.0000 C.3     1  UNL1       -0.0233
     15 C           9.5704    2.3563    0.0000 C.3     1  UNL1       -0.0295
     16 C          10.4913    1.0336    0.0000 C.3     1  UNL1       -0.0015
     17 C           8.7141    2.8729    0.0000 C.3     1  UNL1       -0.0305
     18 C          11.0903    1.8269    0.0000 C.3     1  UNL1        0.0660
     19 C           7.8386    2.3897    0.0000 C.3     1  UNL1       -0.0262
     20 C          10.5223    2.6428    0.0000 C.3     1  UNL1       -0.0226
     21 C           8.6756    0.8733    0.0000 C.3     1  UNL1       -0.0467
     22 C          11.0594    0.2250    0.0000 C.3     1  UNL1        0.0160
     23 C           7.8194    1.3899    0.0000 C.3     1  UNL1       -0.0486
     24 C           6.9386    2.9140    0.0000 C.3     1  UNL1        0.0184
     25 C          12.0044    0.5139    0.0000 C.3     1  UNL1        0.1732
     26 C           9.5318    0.3567    0.0000 C.3     1  UNL1       -0.0590
     27 C           8.7503    3.9139    0.0000 C.3     1  UNL1       -0.0311
     28 C           6.9506    3.9556    0.0000 C.2     1  UNL1       -0.0624
     29 C           6.0010    2.3679    0.0000 C.3     1  UNL1        0.0734
     30 C          10.7346   -0.7207    0.0000 C.3     1  UNL1       -0.0572
     31 C           7.8626    4.4589    0.0000 C.2     1  UNL1       -0.0838
     32 C          12.9253    0.9037    0.0000 C.3     1  UNL1        0.0020
     33 C           6.9270    1.9140    0.0000 C.3     1  UNL1       -0.0532
     34 C           6.0260    4.5232    0.0000 C.3     1  UNL1       -0.0049
     35 C           5.0635    2.9140    0.0000 C.3     1  UNL1        0.0007
     36 C           5.0761    3.9989    0.0000 C.3     1  UNL1        0.0613
     37 C          13.7234    0.3012    0.0000 C.3     1  UNL1       -0.0435
     38 C          13.6006   -0.6913    0.0000 C.3     1  UNL1       -0.0201
     39 C          12.6797   -1.0811    0.0000 C.3     1  UNL1        0.0535
     40 C           5.1350    0.8679    0.0000 C.3     1  UNL1        0.1885
     41 C          14.3986   -1.2938    0.0000 C.3     1  UNL1       -0.0603
     42 C           5.1350   -0.1321    0.0000 C.3     1  UNL1        0.1406
     43 C           4.2690   -0.6321    0.0000 C.3     1  UNL1        0.1143
     44 C           3.4030    0.8679    0.0000 C.3     1  UNL1        0.0873
     45 C           3.4030   -0.1321    0.0000 C.3     1  UNL1        0.1095
     46 C           2.5369    1.3679    0.0000 C.3     1  UNL1       -0.0361
     47 C           6.0010   -1.6321    0.0000 C.3     1  UNL1        0.1895
     48 C           6.8671   -2.1321    0.0000 C.3     1  UNL1        0.1451
     49 C           6.8671   -3.1321    0.0000 C.3     1  UNL1        0.1615
     50 C           5.1350   -3.1321    0.0000 C.3     1  UNL1        0.0884
     51 C           6.0010   -3.6321    0.0000 C.3     1  UNL1        0.1205
     52 C           4.2690   -3.6321    0.0000 C.3     1  UNL1       -0.0360
     53 C           7.7331   -4.6321    0.0000 C.2     1  UNL1        0.3044
     54 C           8.5991   -5.1321    0.0000 C.3     1  UNL1        0.0332
     55 H           9.6766    3.1997    0.0000 H       1  UNL1        0.0310
     56 H           9.9805    0.3541    0.0000 H       1  UNL1        0.0335
     57 H           9.4615    3.2779    0.0000 H       1  UNL1        0.0310
     58 H          11.6039    2.5042    0.0000 H       1  UNL1        0.0600
     59 H           8.5664    1.9506    0.0000 H       1  UNL1        0.0313
     60 H          11.0655    2.9416    0.0000 H       1  UNL1        0.0293
     61 H          10.2822    3.2144    0.0000 H       1  UNL1        0.0293
     62 H           8.2680    0.4061    0.0000 H       1  UNL1        0.0271
     63 H           9.0649    0.3907    0.0000 H       1  UNL1        0.0271
     64 H          10.4455    0.1380    0.0000 H       1  UNL1        0.0354
     65 H           7.2110    1.5093    0.0000 H       1  UNL1        0.0268
     66 H           7.5961    0.8115    0.0000 H       1  UNL1        0.0268
     67 H           8.9119    0.3686    0.0000 H       1  UNL1        0.0235
     68 H           9.5199   -0.2632    0.0000 H       1  UNL1        0.0235
     69 H          10.1517    0.3447    0.0000 H       1  UNL1        0.0235
     70 H           9.3571    3.7867    0.0000 H       1  UNL1        0.0310
     71 H           8.9794    4.4900    0.0000 H       1  UNL1        0.0310
     72 H           6.5386    2.0589    0.0000 H       1  UNL1        0.0606
     73 H          10.1482   -0.5193    0.0000 H       1  UNL1        0.0234
     74 H          10.5332   -1.3071    0.0000 H       1  UNL1        0.0234
     75 H          11.3209   -0.9221    0.0000 H       1  UNL1        0.0234
     76 H           7.8769    5.0787    0.0000 H       1  UNL1        0.0572
     77 H          13.3792    1.3261    0.0000 H       1  UNL1        0.0317
     78 H          12.5881    1.4240    0.0000 H       1  UNL1        0.0317
     79 H           6.3070    1.9212    0.0000 H       1  UNL1        0.0239
     80 H           6.9198    1.2941    0.0000 H       1  UNL1        0.0239
     81 H           7.5470    1.9069    0.0000 H       1  UNL1        0.0239
     82 H           6.4360    4.9883    0.0000 H       1  UNL1        0.0335
     83 H           5.6379    5.0067    0.0000 H       1  UNL1        0.0335
     84 H           4.4539    3.0271    0.0000 H       1  UNL1        0.0315
     85 H           4.8477    2.3328    0.0000 H       1  UNL1        0.0315
     86 H           5.0868    4.6188    0.0000 H       1  UNL1        0.0597
     87 H          14.3161    0.1193    0.0000 H       1  UNL1        0.0270
     88 H          14.0054    0.8533    0.0000 H       1  UNL1        0.0270
     89 H          14.1715   -0.4496    0.0000 H       1  UNL1        0.0320
     90 H          12.2258   -1.5035    0.0000 H       1  UNL1        0.0563
     91 H          13.0169   -1.6014    0.0000 H       1  UNL1        0.0563
     92 H           5.1350    1.4879    0.0000 H       1  UNL1        0.0938
     93 H          14.0250   -1.7886    0.0000 H       1  UNL1        0.0233
     94 H          14.8934   -1.6674    0.0000 H       1  UNL1        0.0233
     95 H          14.7722   -0.7991    0.0000 H       1  UNL1        0.0233
     96 H           4.2274    5.1321    0.0000 H       1  UNL1        0.2098
     97 H           5.1350   -0.7521    0.0000 H       1  UNL1        0.0675
     98 H           3.7320   -0.9421    0.0000 H       1  UNL1        0.0648
     99 H           3.4030    1.4879    0.0000 H       1  UNL1        0.0621
    100 H           2.8660    0.1779    0.0000 H       1  UNL1        0.0646
    101 H           2.8469    1.9048    0.0000 H       1  UNL1        0.0255
    102 H           2.0000    1.6779    0.0000 H       1  UNL1        0.0255
    103 H           2.2269    0.8309    0.0000 H       1  UNL1        0.0255
    104 H           6.5380   -1.3221    0.0000 H       1  UNL1        0.0938
    105 H           3.7320   -1.9421    0.0000 H       1  UNL1        0.2100
    106 H           2.0000   -0.3221    0.0000 H       1  UNL1        0.2100
    107 H           7.4040   -2.4421    0.0000 H       1  UNL1        0.0682
    108 H           6.8671   -3.7521    0.0000 H       1  UNL1        0.0789
    109 H           4.5981   -2.8221    0.0000 H       1  UNL1        0.0621
    110 H           5.4641   -3.9421    0.0000 H       1  UNL1        0.0657
    111 H           8.2700   -1.9421    0.0000 H       1  UNL1        0.2102
    112 H           3.9590   -3.0952    0.0000 H       1  UNL1        0.0255
    113 H           3.7320   -3.9421    0.0000 H       1  UNL1        0.0255
    114 H           4.5790   -4.1691    0.0000 H       1  UNL1        0.0255
    115 H           5.4641   -4.9421    0.0000 H       1  UNL1        0.2101
    116 H           8.2891   -5.6691    0.0000 H       1  UNL1        0.0342
    117 H           9.1360   -5.4421    0.0000 H       1  UNL1        0.0342
    118 H           8.9091   -4.5952    0.0000 H       1  UNL1        0.0342
@<TRIPOS>BOND
     1     1    18    1
     2    25     1    1
     3     2    25    1
     4     2    39    1
     5    29     3    1
     6    40     3    1
     7    36     4    1
     8     4    96    1
     9     5    40    1
    10     5    44    1
    11    42     6    1
    12    47     6    1
    13    43     7    1
    14     7   105    1
    15    45     8    1
    16     8   106    1
    17     9    47    1
    18     9    50    1
    19    48    10    1
    20    10   111    1
    21    49    11    1
    22    11    53    1
    23    51    12    1
    24    12   115    1
    25    13    53    2
    26    14    15    1
    27    14    16    1
    28    14    21    1
    29    14    26    1
    30    15    17    1
    31    15    20    1
    32    15    55    1
    33    16    18    1
    34    16    22    1
    35    16    56    1
    36    17    19    1
    37    17    27    1
    38    17    57    1
    39    18    20    1
    40    18    58    1
    41    19    23    1
    42    19    24    1
    43    19    59    1
    44    20    60    1
    45    20    61    1
    46    21    23    1
    47    21    62    1
    48    21    63    1
    49    22    25    1
    50    22    30    1
    51    22    64    1
    52    23    65    1
    53    23    66    1
    54    24    28    1
    55    24    29    1
    56    24    33    1
    57    25    32    1
    58    26    67    1
    59    26    68    1
    60    26    69    1
    61    27    31    1
    62    27    70    1
    63    27    71    1
    64    28    31    2
    65    28    34    1
    66    29    35    1
    67    29    72    1
    68    30    73    1
    69    30    74    1
    70    30    75    1
    71    31    76    1
    72    32    37    1
    73    32    77    1
    74    32    78    1
    75    33    79    1
    76    33    80    1
    77    33    81    1
    78    34    36    1
    79    34    82    1
    80    34    83    1
    81    35    36    1
    82    35    84    1
    83    35    85    1
    84    36    86    1
    85    37    38    1
    86    37    87    1
    87    37    88    1
    88    38    39    1
    89    38    41    1
    90    38    89    1
    91    39    90    1
    92    39    91    1
    93    40    42    1
    94    40    92    1
    95    41    93    1
    96    41    94    1
    97    41    95    1
    98    42    43    1
    99    42    97    1
   100    43    45    1
   101    43    98    1
   102    44    45    1
   103    44    46    1
   104    44    99    1
   105    45   100    1
   106    46   101    1
   107    46   102    1
   108    46   103    1
   109    47    48    1
   110    47   104    1
   111    48    49    1
   112    48   107    1
   113    49    51    1
   114    49   108    1
   115    50    51    1
   116    50    52    1
   117    50   109    1
   118    51   110    1
   119    52   112    1
   120    52   113    1
   121    52   114    1
   122    53    54    1
   123    54   116    1
   124    54   117    1
   125    54   118    1
