@<TRIPOS>MOLECULE
IMPHY003412
 69 72 0 0 0
SMALL
GASTEIGER

@<TRIPOS>ATOM
      1 O           6.8671   -0.5000    0.0000 O.3     1  UNL1       -0.3293
      2 O           8.5991   -2.5000    0.0000 O.3     1  UNL1       -0.4488
      3 O           6.8671   -3.5000    0.0000 O.3     1  UNL1       -0.3852
      4 O           5.1350   -2.5000    0.0000 O.3     1  UNL1       -0.3864
      5 O           8.5991   -0.5000    0.0000 O.3     1  UNL1       -0.4276
      6 O           5.1350    0.5000    0.0000 O.3     1  UNL1       -0.4585
      7 O           9.4651   -1.0000    0.0000 O.2     1  UNL1       -0.2449
      8 O           7.7331    1.0000    0.0000 O.2     1  UNL1       -0.2449
      9 O           3.4030    0.5000    0.0000 O.2     1  UNL1       -0.2450
     10 O          12.9292   -2.0000    0.0000 O.3     1  UNL1       -0.5032
     11 O          11.1972   -5.0000    0.0000 O.3     1  UNL1       -0.5032
     12 O          10.3312    3.5000    0.0000 O.3     1  UNL1       -0.5032
     13 O          12.0632    0.5000    0.0000 O.3     1  UNL1       -0.5032
     14 O          12.9292   -4.0000    0.0000 O.3     1  UNL1       -0.5009
     15 O          12.0632    2.5000    0.0000 O.3     1  UNL1       -0.5009
     16 O           2.5369    4.0000    0.0000 O.3     1  UNL1       -0.5032
     17 O           6.0010    4.0000    0.0000 O.3     1  UNL1       -0.5032
     18 O           4.2690    5.0000    0.0000 O.3     1  UNL1       -0.5009
     19 C           6.8671   -2.5000    0.0000 C.3     1  UNL1        0.1263
     20 C           6.0010   -2.0000    0.0000 C.3     1  UNL1        0.1141
     21 C           7.7331   -2.0000    0.0000 C.3     1  UNL1        0.1933
     22 C           6.0010   -1.0000    0.0000 C.3     1  UNL1        0.1251
     23 C           7.7331   -1.0000    0.0000 C.3     1  UNL1        0.2453
     24 C           5.1350   -0.5000    0.0000 C.3     1  UNL1        0.1215
     25 C           9.4651   -2.0000    0.0000 C.2     1  UNL1        0.3400
     26 C           8.5991    0.5000    0.0000 C.2     1  UNL1        0.3417
     27 C          10.3312   -2.5000    0.0000 C.ar    1  UNL1        0.0661
     28 C           4.2690    1.0000    0.0000 C.2     1  UNL1        0.3395
     29 C           9.4651    1.0000    0.0000 C.ar    1  UNL1        0.0662
     30 C           4.2690    2.0000    0.0000 C.ar    1  UNL1        0.0661
     31 C          10.3312   -3.5000    0.0000 C.ar    1  UNL1       -0.0023
     32 C          11.1972   -2.0000    0.0000 C.ar    1  UNL1       -0.0023
     33 C          10.3312    0.5000    0.0000 C.ar    1  UNL1       -0.0023
     34 C           9.4651    2.0000    0.0000 C.ar    1  UNL1       -0.0023
     35 C          12.0632   -2.5000    0.0000 C.ar    1  UNL1        0.1628
     36 C          11.1972   -4.0000    0.0000 C.ar    1  UNL1        0.1628
     37 C           5.1350    2.5000    0.0000 C.ar    1  UNL1       -0.0023
     38 C           3.4030    2.5000    0.0000 C.ar    1  UNL1       -0.0023
     39 C          10.3312    2.5000    0.0000 C.ar    1  UNL1        0.1628
     40 C          11.1972    1.0000    0.0000 C.ar    1  UNL1        0.1628
     41 C          12.0632   -3.5000    0.0000 C.ar    1  UNL1        0.2006
     42 C          11.1972    2.0000    0.0000 C.ar    1  UNL1        0.2006
     43 C           3.4030    3.5000    0.0000 C.ar    1  UNL1        0.1628
     44 C           5.1350    3.5000    0.0000 C.ar    1  UNL1        0.1628
     45 C           4.2690    4.0000    0.0000 C.ar    1  UNL1        0.2006
     46 H           7.4040   -2.8100    0.0000 H       1  UNL1        0.0659
     47 H           6.0010   -2.6200    0.0000 H       1  UNL1        0.0648
     48 H           8.2700   -1.6900    0.0000 H       1  UNL1        0.0825
     49 H           6.0010   -0.3800    0.0000 H       1  UNL1        0.0658
     50 H           7.7331   -0.3800    0.0000 H       1  UNL1        0.1097
     51 H           4.5244   -0.3923    0.0000 H       1  UNL1        0.0725
     52 H           4.9230   -1.0826    0.0000 H       1  UNL1        0.0725
     53 H           6.3301   -3.8100    0.0000 H       1  UNL1        0.2101
     54 H           4.5981   -2.1900    0.0000 H       1  UNL1        0.2100
     55 H           9.7942   -3.8100    0.0000 H       1  UNL1        0.0663
     56 H          11.1972   -1.3800    0.0000 H       1  UNL1        0.0663
     57 H          10.3312   -0.1200    0.0000 H       1  UNL1        0.0663
     58 H           8.9282    2.3100    0.0000 H       1  UNL1        0.0663
     59 H           5.6720    2.1900    0.0000 H       1  UNL1        0.0663
     60 H           2.8660    2.1900    0.0000 H       1  UNL1        0.0663
     61 H          13.4662   -2.3100    0.0000 H       1  UNL1        0.2923
     62 H          10.6603   -5.3100    0.0000 H       1  UNL1        0.2923
     63 H           9.7942    3.8100    0.0000 H       1  UNL1        0.2923
     64 H          12.6002    0.8100    0.0000 H       1  UNL1        0.2923
     65 H          12.9292   -4.6200    0.0000 H       1  UNL1        0.2924
     66 H          12.0632    3.1200    0.0000 H       1  UNL1        0.2924
     67 H           2.0000    3.6900    0.0000 H       1  UNL1        0.2923
     68 H           6.0010    4.6200    0.0000 H       1  UNL1        0.2923
     69 H           3.7320    5.3100    0.0000 H       1  UNL1        0.2924
@<TRIPOS>BOND
     1     1    22    1
     2     1    23    1
     3    21     2    1
     4     2    25    1
     5    19     3    1
     6     3    53    1
     7    20     4    1
     8     4    54    1
     9    23     5    1
    10     5    26    1
    11     6    24    1
    12     6    28    1
    13     7    25    2
    14     8    26    2
    15     9    28    2
    16    10    35    1
    17    10    61    1
    18    11    36    1
    19    11    62    1
    20    12    39    1
    21    12    63    1
    22    13    40    1
    23    13    64    1
    24    14    41    1
    25    14    65    1
    26    15    42    1
    27    15    66    1
    28    16    43    1
    29    16    67    1
    30    17    44    1
    31    17    68    1
    32    18    45    1
    33    18    69    1
    34    19    20    1
    35    19    21    1
    36    19    46    1
    37    20    22    1
    38    20    47    1
    39    21    23    1
    40    21    48    1
    41    22    24    1
    42    22    49    1
    43    23    50    1
    44    24    51    1
    45    24    52    1
    46    25    27    1
    47    26    29    1
    48    27    31   ar
    49    27    32   ar
    50    28    30    1
    51    29    33   ar
    52    29    34   ar
    53    30    37   ar
    54    30    38   ar
    55    31    36   ar
    56    31    55    1
    57    32    35   ar
    58    32    56    1
    59    33    40   ar
    60    33    57    1
    61    34    39   ar
    62    34    58    1
    63    35    41   ar
    64    36    41   ar
    65    37    44   ar
    66    37    59    1
    67    38    43   ar
    68    38    60    1
    69    39    42   ar
    70    40    42   ar
    71    43    45   ar
    72    44    45   ar
