@<TRIPOS>MOLECULE
IMPHY016990
 13 12 0 0 0
SMALL
GASTEIGER

@<TRIPOS>ATOM
      1 N           6.3301   -0.5000    0.0000 N.1     1  UNL1       -0.1966
      2 C           3.7320    0.0000    0.0000 C.3     1  UNL1       -0.0222
      3 C           4.5981    0.5000    0.0000 C.3     1  UNL1        0.0382
      4 C           2.8660    0.5000    0.0000 C.2     1  UNL1       -0.0902
      5 C           5.4641    0.0000    0.0000 C.1     1  UNL1        0.0628
      6 C           2.0000   -0.0000    0.0000 C.2     1  UNL1       -0.1026
      7 H           3.3335   -0.4749    0.0000 H       1  UNL1        0.0317
      8 H           4.1306   -0.4749    0.0000 H       1  UNL1        0.0317
      9 H           4.9966    0.9749    0.0000 H       1  UNL1        0.0421
     10 H           4.1996    0.9749    0.0000 H       1  UNL1        0.0421
     11 H           2.8660    1.1200    0.0000 H       1  UNL1        0.0567
     12 H           1.4631    0.3100    0.0000 H       1  UNL1        0.0532
     13 H           2.0000   -0.6200    0.0000 H       1  UNL1        0.0532
@<TRIPOS>BOND
     1     1     5    3
     2     2     3    1
     3     2     4    1
     4     2     7    1
     5     2     8    1
     6     3     5    1
     7     3     9    1
     8     3    10    1
     9     4     6    2
    10     4    11    1
    11     6    12    1
    12     6    13    1
