@<TRIPOS>MOLECULE
IMPHY000586
 34 35 0 0 0
SMALL
GASTEIGER

@<TRIPOS>ATOM
      1 O           2.0000   -3.0600    0.0000 O.3     1  UNL1       -0.4950
      2 O           5.4641   -3.0600    0.0000 O.3     1  UNL1       -0.5066
      3 O           6.3301    3.4400    0.0000 O.3     1  UNL1       -0.5068
      4 C           3.7320   -0.0600    0.0000 C.3     1  UNL1       -0.0235
      5 C           4.5981    0.4400    0.0000 C.3     1  UNL1       -0.0236
      6 C           3.7320   -1.0600    0.0000 C.ar    1  UNL1       -0.0402
      7 C           4.5981    1.4400    0.0000 C.ar    1  UNL1       -0.0436
      8 C           2.8660   -1.5600    0.0000 C.ar    1  UNL1       -0.0165
      9 C           4.5981   -1.5600    0.0000 C.ar    1  UNL1       -0.0168
     10 C           5.4641    1.9400    0.0000 C.ar    1  UNL1       -0.0170
     11 C           3.7320    1.9400    0.0000 C.ar    1  UNL1       -0.0583
     12 C           2.8660   -2.5600    0.0000 C.ar    1  UNL1        0.1238
     13 C           4.5981   -2.5600    0.0000 C.ar    1  UNL1        0.1206
     14 C           3.7320   -3.0600    0.0000 C.ar    1  UNL1        0.0215
     15 C           5.4641    2.9400    0.0000 C.ar    1  UNL1        0.1171
     16 C           3.7320    2.9400    0.0000 C.ar    1  UNL1       -0.0581
     17 C           4.5981    3.4400    0.0000 C.ar    1  UNL1       -0.0202
     18 C           2.0000   -4.0600    0.0000 C.3     1  UNL1        0.0788
     19 H           3.5200    0.5226    0.0000 H       1  UNL1        0.0316
     20 H           3.1215   -0.1677    0.0000 H       1  UNL1        0.0316
     21 H           4.8101   -0.1426    0.0000 H       1  UNL1        0.0316
     22 H           5.2087    0.5477    0.0000 H       1  UNL1        0.0316
     23 H           2.3291   -1.2500    0.0000 H       1  UNL1        0.0657
     24 H           5.1350   -1.2500    0.0000 H       1  UNL1        0.0657
     25 H           6.0010    1.6300    0.0000 H       1  UNL1        0.0657
     26 H           3.1951    1.6300    0.0000 H       1  UNL1        0.0620
     27 H           3.7320   -3.6800    0.0000 H       1  UNL1        0.0691
     28 H           3.1951    3.2500    0.0000 H       1  UNL1        0.0619
     29 H           4.5981    4.0600    0.0000 H       1  UNL1        0.0654
     30 H           5.4641   -3.6800    0.0000 H       1  UNL1        0.2921
     31 H           1.3800   -4.0600    0.0000 H       1  UNL1        0.0660
     32 H           2.0000   -4.6800    0.0000 H       1  UNL1        0.0660
     33 H           2.6200   -4.0600    0.0000 H       1  UNL1        0.0660
     34 H           6.3301    4.0600    0.0000 H       1  UNL1        0.2921
@<TRIPOS>BOND
     1     1    12    1
     2     1    18    1
     3     2    13    1
     4     2    30    1
     5     3    15    1
     6     3    34    1
     7     4     5    1
     8     4     6    1
     9     4    19    1
    10     4    20    1
    11     5     7    1
    12     5    21    1
    13     5    22    1
    14     6     8   ar
    15     6     9   ar
    16     7    10   ar
    17     7    11   ar
    18     8    12   ar
    19     8    23    1
    20     9    13   ar
    21     9    24    1
    22    10    15   ar
    23    10    25    1
    24    11    16   ar
    25    11    26    1
    26    12    14   ar
    27    13    14   ar
    28    14    27    1
    29    15    17   ar
    30    16    17   ar
    31    16    28    1
    32    17    29    1
    33    18    31    1
    34    18    32    1
    35    18    33    1
