@<TRIPOS>MOLECULE
IMPHY016101
 20 19 0 0 0
SMALL
GASTEIGER

@<TRIPOS>ATOM
      1 O           4.2690   -1.0600    0.0000 O.2     1  UNL1       -0.2927
      2 C           6.0010   -0.0600    0.0000 C.3     1  UNL1       -0.0489
      3 C           5.1350    0.4400    0.0000 C.3     1  UNL1        0.0096
      4 C           6.8671    0.4400    0.0000 C.3     1  UNL1       -0.0649
      5 C           4.2690   -0.0600    0.0000 C.2     1  UNL1        0.1558
      6 C           3.4030    0.4400    0.0000 C.2     1  UNL1       -0.0234
      7 C           2.5369   -0.0600    0.0000 C.2     1  UNL1       -0.0838
      8 C           2.5369   -1.0600    0.0000 C.3     1  UNL1       -0.0464
      9 H           5.6025   -0.5349    0.0000 H       1  UNL1        0.0267
     10 H           6.3996   -0.5349    0.0000 H       1  UNL1        0.0267
     11 H           5.5335    0.9149    0.0000 H       1  UNL1        0.0345
     12 H           4.7365    0.9149    0.0000 H       1  UNL1        0.0345
     13 H           7.1771   -0.0969    0.0000 H       1  UNL1        0.0230
     14 H           7.4040    0.7500    0.0000 H       1  UNL1        0.0230
     15 H           6.5571    0.9769    0.0000 H       1  UNL1        0.0230
     16 H           3.4030    1.0600    0.0000 H       1  UNL1        0.0649
     17 H           2.0000    0.2500    0.0000 H       1  UNL1        0.0570
     18 H           1.9169   -1.0600    0.0000 H       1  UNL1        0.0272
     19 H           2.5369   -1.6800    0.0000 H       1  UNL1        0.0272
     20 H           3.1569   -1.0600    0.0000 H       1  UNL1        0.0272
@<TRIPOS>BOND
     1     1     5    2
     2     2     3    1
     3     2     4    1
     4     2     9    1
     5     2    10    1
     6     3     5    1
     7     3    11    1
     8     3    12    1
     9     4    13    1
    10     4    14    1
    11     4    15    1
    12     5     6    1
    13     6     7    2
    14     6    16    1
    15     7     8    1
    16     7    17    1
    17     8    18    1
    18     8    19    1
    19     8    20    1
