@<TRIPOS>MOLECULE
IMPHY000221
 78 81 0 0 0
SMALL
GASTEIGER

@<TRIPOS>ATOM
      1 O           2.0000   -3.2258    0.0000 O.2     1  UNL1       -0.2968
      2 O          10.2963    0.5437    0.0000 O.2     1  UNL1       -0.2968
      3 C           7.3931   -0.1735    0.0000 C.3     1  UNL1       -0.0192
      4 C           7.3931   -1.1735    0.0000 C.3     1  UNL1       -0.0051
      5 C           8.3393    0.1313    0.0000 C.3     1  UNL1       -0.0255
      6 C           6.5271   -1.6735    0.0000 C.2     1  UNL1       -0.0633
      7 C           4.7510   -1.6803    0.0000 C.3     1  UNL1       -0.0067
      8 C           8.3393   -1.4782    0.0000 C.3     1  UNL1       -0.0431
      9 C           5.6610   -1.1735    0.0000 C.2     1  UNL1       -0.0635
     10 C           6.5271    0.3265    0.0000 C.3     1  UNL1       -0.0428
     11 C           4.7430   -2.7219    0.0000 C.3     1  UNL1       -0.0198
     12 C           8.9229   -0.6735    0.0000 C.3     1  UNL1       -0.0483
     13 C           5.6610   -0.1735    0.0000 C.3     1  UNL1       -0.0304
     14 C           6.5431   -2.7150    0.0000 C.3     1  UNL1       -0.0306
     15 C           5.6451   -3.2427    0.0000 C.3     1  UNL1       -0.0448
     16 C           7.3931    0.8265    0.0000 C.3     1  UNL1       -0.0585
     17 C           7.3931   -2.1735    0.0000 C.3     1  UNL1       -0.0553
     18 C           3.8076   -3.2716    0.0000 C.3     1  UNL1        0.0270
     19 C           8.6500    1.0818    0.0000 C.3     1  UNL1        0.0183
     20 C           3.8242   -1.1162    0.0000 C.3     1  UNL1       -0.0369
     21 C           4.7587   -0.6803    0.0000 C.3     1  UNL1       -0.0555
     22 C           2.8763   -1.6442    0.0000 C.3     1  UNL1        0.0072
     23 C           2.8680   -2.7291    0.0000 C.2     1  UNL1        0.1392
     24 C           3.3109   -4.1396    0.0000 C.3     1  UNL1       -0.0528
     25 C           4.3109   -4.1357    0.0000 C.3     1  UNL1       -0.0528
     26 C           7.9821    1.8261    0.0000 C.3     1  UNL1       -0.0554
     27 C           9.6285    1.2880    0.0000 C.2     1  UNL1        0.1401
     28 C           9.9391    2.2385    0.0000 C.3     1  UNL1        0.0245
     29 C          10.9176    2.4448    0.0000 C.2     1  UNL1       -0.0782
     30 C          11.2283    3.3953    0.0000 C.2     1  UNL1       -0.0792
     31 C          12.2068    3.6015    0.0000 C.3     1  UNL1       -0.0440
     32 C          10.5605    4.1396    0.0000 C.3     1  UNL1       -0.0440
     33 H           8.9518    0.2275    0.0000 H       1  UNL1        0.0313
     34 H           8.0883   -2.0451    0.0000 H       1  UNL1        0.0274
     35 H           8.8767   -1.7874    0.0000 H       1  UNL1        0.0274
     36 H           6.9256    0.8015    0.0000 H       1  UNL1        0.0274
     37 H           6.1285    0.8015    0.0000 H       1  UNL1        0.0274
     38 H           4.7463   -3.5719    0.0000 H       1  UNL1        0.0318
     39 H           9.3838   -1.0882    0.0000 H       1  UNL1        0.0269
     40 H           9.3838   -0.2587    0.0000 H       1  UNL1        0.0269
     41 H           5.4490    0.4092    0.0000 H       1  UNL1        0.0310
     42 H           5.0504   -0.2811    0.0000 H       1  UNL1        0.0310
     43 H           6.7612   -3.2954    0.0000 H       1  UNL1        0.0310
     44 H           7.1523   -2.5995    0.0000 H       1  UNL1        0.0310
     45 H           5.2478   -3.7187    0.0000 H       1  UNL1        0.0271
     46 H           6.0460   -3.7156    0.0000 H       1  UNL1        0.0271
     47 H           8.0131    0.8265    0.0000 H       1  UNL1        0.0235
     48 H           7.3931    1.4465    0.0000 H       1  UNL1        0.0235
     49 H           6.7731    0.8265    0.0000 H       1  UNL1        0.0235
     50 H           6.7731   -2.1735    0.0000 H       1  UNL1        0.0238
     51 H           7.3931   -2.7935    0.0000 H       1  UNL1        0.0238
     52 H           8.0131   -2.1735    0.0000 H       1  UNL1        0.0238
     53 H           8.0433    0.9539    0.0000 H       1  UNL1        0.0378
     54 H           4.2324   -0.6496    0.0000 H       1  UNL1        0.0278
     55 H           3.4343   -0.6342    0.0000 H       1  UNL1        0.0278
     56 H           5.3787   -0.6851    0.0000 H       1  UNL1        0.0238
     57 H           4.7635   -0.0604    0.0000 H       1  UNL1        0.0238
     58 H           4.1388   -0.6756    0.0000 H       1  UNL1        0.0238
     59 H           2.6718   -1.0589    0.0000 H       1  UNL1        0.0342
     60 H           2.2647   -1.7456    0.0000 H       1  UNL1        0.0342
     61 H           2.7728   -3.8316    0.0000 H       1  UNL1        0.0239
     62 H           3.0030   -4.6777    0.0000 H       1  UNL1        0.0239
     63 H           3.8490   -4.4475    0.0000 H       1  UNL1        0.0239
     64 H           3.7752   -4.4478    0.0000 H       1  UNL1        0.0239
     65 H           4.6230   -4.6715    0.0000 H       1  UNL1        0.0239
     66 H           4.8466   -3.8236    0.0000 H       1  UNL1        0.0239
     67 H           8.4436    2.2402    0.0000 H       1  UNL1        0.0236
     68 H           7.5681    2.2876    0.0000 H       1  UNL1        0.0236
     69 H           7.5207    1.4120    0.0000 H       1  UNL1        0.0236
     70 H           9.9186    2.8582    0.0000 H       1  UNL1        0.0384
     71 H           9.3253    2.3259    0.0000 H       1  UNL1        0.0384
     72 H          11.3317    1.9833    0.0000 H       1  UNL1        0.0576
     73 H          11.0219    4.5536    0.0000 H       1  UNL1        0.0274
     74 H          10.1464    4.6010    0.0000 H       1  UNL1        0.0274
     75 H          10.0990    3.7255    0.0000 H       1  UNL1        0.0274
     76 H          12.3347    2.9948    0.0000 H       1  UNL1        0.0274
     77 H          12.8135    3.7294    0.0000 H       1  UNL1        0.0274
     78 H          12.0790    4.2082    0.0000 H       1  UNL1        0.0274
@<TRIPOS>BOND
     1     1    23    2
     2     2    27    2
     3     3     4    1
     4     3     5    1
     5     3    10    1
     6     3    16    1
     7     4     6    1
     8     4     8    1
     9     4    17    1
    10     5    12    1
    11     5    19    1
    12     5    33    1
    13     6     9    2
    14     6    14    1
    15     7     9    1
    16     7    11    1
    17     7    20    1
    18     7    21    1
    19     8    12    1
    20     8    34    1
    21     8    35    1
    22     9    13    1
    23    10    13    1
    24    10    36    1
    25    10    37    1
    26    11    15    1
    27    11    18    1
    28    11    38    1
    29    12    39    1
    30    12    40    1
    31    13    41    1
    32    13    42    1
    33    14    15    1
    34    14    43    1
    35    14    44    1
    36    15    45    1
    37    15    46    1
    38    16    47    1
    39    16    48    1
    40    16    49    1
    41    17    50    1
    42    17    51    1
    43    17    52    1
    44    18    23    1
    45    18    24    1
    46    18    25    1
    47    19    26    1
    48    19    27    1
    49    19    53    1
    50    20    22    1
    51    20    54    1
    52    20    55    1
    53    21    56    1
    54    21    57    1
    55    21    58    1
    56    22    23    1
    57    22    59    1
    58    22    60    1
    59    24    61    1
    60    24    62    1
    61    24    63    1
    62    25    64    1
    63    25    65    1
    64    25    66    1
    65    26    67    1
    66    26    68    1
    67    26    69    1
    68    27    28    1
    69    28    29    1
    70    28    70    1
    71    28    71    1
    72    29    30    2
    73    29    72    1
    74    30    31    1
    75    30    32    1
    76    31    76    1
    77    31    77    1
    78    31    78    1
    79    32    73    1
    80    32    74    1
    81    32    75    1
