@<TRIPOS>MOLECULE
IMPHY009103
 57 61 0 0 0
SMALL
GASTEIGER

@<TRIPOS>ATOM
      1 O           5.5001   -3.2576    0.0000 O.3     1  UNL1       -0.3709
      2 O           2.8641    2.3568    0.0000 O.3     1  UNL1       -0.4914
      3 O           4.6380    3.3809    0.0000 O.3     1  UNL1       -0.4914
      4 O           9.0462   -1.2125    0.0000 O.3     1  UNL1       -0.4914
      5 O           9.0462    0.8358    0.0000 O.3     1  UNL1       -0.4914
      6 N           3.7320   -2.2368    0.0000 N.3     1  UNL1       -0.2709
      7 C           4.6341   -2.7576    0.0000 C.3     1  UNL1        0.1397
      8 C           4.6501   -0.6883    0.0000 C.3     1  UNL1        0.0232
      9 C           3.7401   -1.1952    0.0000 C.3     1  UNL1        0.0126
     10 C           4.4162   -3.7699    0.0000 C.3     1  UNL1       -0.0051
     11 C           2.9643   -2.9316    0.0000 C.3     1  UNL1        0.0019
     12 C           3.3863   -3.8772    0.0000 C.3     1  UNL1       -0.0359
     13 C           5.5161   -1.1883    0.0000 C.2     1  UNL1       -0.0308
     14 C           5.5322   -2.2298    0.0000 C.2     1  UNL1       -0.0335
     15 C           4.6501    0.3117    0.0000 C.ar    1  UNL1       -0.0273
     16 C           6.3821   -0.6883    0.0000 C.ar    1  UNL1       -0.0100
     17 C           5.5161    0.8117    0.0000 C.ar    1  UNL1       -0.0097
     18 C           6.3821    0.3117    0.0000 C.ar    1  UNL1       -0.0064
     19 C           3.7401    0.8185    0.0000 C.ar    1  UNL1       -0.0119
     20 C           7.2761   -1.2230    0.0000 C.ar    1  UNL1       -0.0083
     21 C           5.5322    1.8532    0.0000 C.ar    1  UNL1       -0.0083
     22 C           7.2761    0.8463    0.0000 C.ar    1  UNL1       -0.0080
     23 C           3.7320    1.8601    0.0000 C.ar    1  UNL1        0.1618
     24 C           4.6341    2.3809    0.0000 C.ar    1  UNL1        0.1621
     25 C           8.1821   -0.7091    0.0000 C.ar    1  UNL1        0.1621
     26 C           8.1821    0.3325    0.0000 C.ar    1  UNL1        0.1621
     27 C           2.0000    1.8534    0.0000 C.3     1  UNL1        0.0790
     28 C           5.5059    3.8776    0.0000 C.3     1  UNL1        0.0790
     29 C           9.9142   -0.7158    0.0000 C.3     1  UNL1        0.0790
     30 C           9.0424    1.8358    0.0000 C.3     1  UNL1        0.0790
     31 H           3.9172   -0.2577    0.0000 H       1  UNL1        0.0410
     32 H           3.5355   -0.6099    0.0000 H       1  UNL1        0.0437
     33 H           3.1284   -1.2966    0.0000 H       1  UNL1        0.0437
     34 H           4.4153   -4.3899    0.0000 H       1  UNL1        0.0310
     35 H           5.0327   -3.8359    0.0000 H       1  UNL1        0.0310
     36 H           2.5989   -2.4308    0.0000 H       1  UNL1        0.0427
     37 H           2.4278   -3.2424    0.0000 H       1  UNL1        0.0427
     38 H           2.7967   -4.0690    0.0000 H       1  UNL1        0.0279
     39 H           3.5150   -4.4837    0.0000 H       1  UNL1        0.0279
     40 H           6.0726   -2.5336    0.0000 H       1  UNL1        0.0617
     41 H           5.5001   -3.8776    0.0000 H       1  UNL1        0.2121
     42 H           3.2068    0.5023    0.0000 H       1  UNL1        0.0658
     43 H           7.2689   -1.8430    0.0000 H       1  UNL1        0.0661
     44 H           6.0726    2.1570    0.0000 H       1  UNL1        0.0661
     45 H           7.2689    1.4663    0.0000 H       1  UNL1        0.0662
     46 H           1.6879    2.3892    0.0000 H       1  UNL1        0.0660
     47 H           1.4643    1.5414    0.0000 H       1  UNL1        0.0660
     48 H           2.3121    1.3177    0.0000 H       1  UNL1        0.0660
     49 H           5.8139    3.3395    0.0000 H       1  UNL1        0.0660
     50 H           6.0440    4.1855    0.0000 H       1  UNL1        0.0660
     51 H           5.1980    4.4157    0.0000 H       1  UNL1        0.0660
     52 H          10.2221   -1.2539    0.0000 H       1  UNL1        0.0660
     53 H          10.4523   -0.4079    0.0000 H       1  UNL1        0.0660
     54 H           9.6062   -0.1777    0.0000 H       1  UNL1        0.0660
     55 H           9.6624    1.8382    0.0000 H       1  UNL1        0.0660
     56 H           9.0400    2.4558    0.0000 H       1  UNL1        0.0660
     57 H           8.4224    1.8334    0.0000 H       1  UNL1        0.0660
@<TRIPOS>BOND
     1     7     1    1
     2     1    41    1
     3     2    23    1
     4     2    27    1
     5     3    24    1
     6     3    28    1
     7     4    25    1
     8     4    29    1
     9     5    26    1
    10     5    30    1
    11     6     7    1
    12     6     9    1
    13     6    11    1
    14     7    10    1
    15     7    14    1
    16     8     9    1
    17     8    13    1
    18     8    15    1
    19     8    31    1
    20     9    32    1
    21     9    33    1
    22    10    12    1
    23    10    34    1
    24    10    35    1
    25    11    12    1
    26    11    36    1
    27    11    37    1
    28    12    38    1
    29    12    39    1
    30    13    14    2
    31    13    16    1
    32    14    40    1
    33    15    17   ar
    34    15    19   ar
    35    16    18   ar
    36    16    20   ar
    37    17    18    1
    38    17    21   ar
    39    18    22   ar
    40    19    23   ar
    41    19    42    1
    42    20    25   ar
    43    20    43    1
    44    21    24   ar
    45    21    44    1
    46    22    26   ar
    47    22    45    1
    48    23    24   ar
    49    25    26   ar
    50    27    46    1
    51    27    47    1
    52    27    48    1
    53    28    49    1
    54    28    50    1
    55    28    51    1
    56    29    52    1
    57    29    53    1
    58    29    54    1
    59    30    55    1
    60    30    56    1
    61    30    57    1
