@<TRIPOS>MOLECULE
IMPHY000822
 62 64 0 0 0
SMALL
GASTEIGER

@<TRIPOS>ATOM
      1 O           6.0290    0.3191    0.0000 O.3     1  UNL1       -0.4826
      2 O           6.0174    3.3883    0.0000 O.2     1  UNL1       -0.2917
      3 O           8.6555   -2.1738    0.0000 O.3     1  UNL1       -0.4912
      4 O           4.2690    3.3537    0.0000 O.3     1  UNL1       -0.5058
      5 O           2.5369    0.3537    0.0000 O.3     1  UNL1       -0.5062
      6 O          10.3914   -1.1804    0.0000 O.3     1  UNL1       -0.5033
      7 C           6.9350    0.8329    0.0000 C.3     1  UNL1        0.1325
      8 C           6.9350    1.8745    0.0000 C.3     1  UNL1        0.0520
      9 C           7.7991    0.3296    0.0000 C.ar    1  UNL1        0.0002
     10 C           5.1350    0.8537    0.0000 C.ar    1  UNL1        0.1423
     11 C           5.1350    1.8537    0.0000 C.ar    1  UNL1        0.1009
     12 C           6.0290    2.3884    0.0000 C.2     1  UNL1        0.1740
     13 C           7.7953   -0.6704    0.0000 C.ar    1  UNL1        0.0083
     14 C           4.2690    0.3537    0.0000 C.ar    1  UNL1        0.0403
     15 C           8.6671    0.8262    0.0000 C.ar    1  UNL1       -0.0511
     16 C           6.9273   -1.1671    0.0000 C.3     1  UNL1       -0.0053
     17 C           4.2690    2.3537    0.0000 C.ar    1  UNL1        0.1343
     18 C           8.6594   -1.1738    0.0000 C.ar    1  UNL1        0.1651
     19 C           4.2690   -0.6463    0.0000 C.3     1  UNL1       -0.0023
     20 C           3.4030    0.8537    0.0000 C.ar    1  UNL1        0.1273
     21 C           3.4030    1.8537    0.0000 C.ar    1  UNL1        0.0225
     22 C           9.5312    0.3229    0.0000 C.ar    1  UNL1       -0.0161
     23 C           9.5273   -0.6771    0.0000 C.ar    1  UNL1        0.1587
     24 C           6.9235   -2.1671    0.0000 C.2     1  UNL1       -0.0809
     25 C           3.4030   -1.1463    0.0000 C.2     1  UNL1       -0.0807
     26 C           6.0555   -2.6637    0.0000 C.2     1  UNL1       -0.0793
     27 C           3.4030   -2.1463    0.0000 C.2     1  UNL1       -0.0793
     28 C           9.5196   -2.6771    0.0000 C.3     1  UNL1        0.0790
     29 C           6.0517   -3.6637    0.0000 C.3     1  UNL1       -0.0440
     30 C           5.1914   -2.1604    0.0000 C.3     1  UNL1       -0.0440
     31 C           2.5369   -2.6463    0.0000 C.3     1  UNL1       -0.0440
     32 C           4.2690   -2.6463    0.0000 C.3     1  UNL1       -0.0440
     33 H           7.4726    1.1419    0.0000 H       1  UNL1        0.0789
     34 H           7.5459    1.7684    0.0000 H       1  UNL1        0.0385
     35 H           7.1441    2.4582    0.0000 H       1  UNL1        0.0385
     36 H           8.6694    1.4462    0.0000 H       1  UNL1        0.0623
     37 H           6.7175   -0.5837    0.0000 H       1  UNL1        0.0357
     38 H           6.3163   -1.2724    0.0000 H       1  UNL1        0.0357
     39 H           4.4810   -1.2289    0.0000 H       1  UNL1        0.0358
     40 H           4.8796   -0.5386    0.0000 H       1  UNL1        0.0358
     41 H           2.8660    2.1637    0.0000 H       1  UNL1        0.0691
     42 H          10.0693    0.6308    0.0000 H       1  UNL1        0.0655
     43 H           7.4592   -2.4791    0.0000 H       1  UNL1        0.0575
     44 H           2.8660   -0.8363    0.0000 H       1  UNL1        0.0575
     45 H           3.7320    3.6637    0.0000 H       1  UNL1        0.2922
     46 H           2.0000    0.6637    0.0000 H       1  UNL1        0.2921
     47 H          10.9295   -0.8725    0.0000 H       1  UNL1        0.2923
     48 H           9.2075   -3.2128    0.0000 H       1  UNL1        0.0660
     49 H          10.0553   -2.9892    0.0000 H       1  UNL1        0.0660
     50 H           9.8316   -2.1414    0.0000 H       1  UNL1        0.0660
     51 H           5.4317   -3.6613    0.0000 H       1  UNL1        0.0274
     52 H           6.0493   -4.2837    0.0000 H       1  UNL1        0.0274
     53 H           5.5035   -1.6247    0.0000 H       1  UNL1        0.0274
     54 H           4.6557   -1.8483    0.0000 H       1  UNL1        0.0274
     55 H           4.8793   -2.6961    0.0000 H       1  UNL1        0.0274
     56 H           6.6716   -3.6661    0.0000 H       1  UNL1        0.0274
     57 H           2.2269   -2.1093    0.0000 H       1  UNL1        0.0274
     58 H           2.0000   -2.9563    0.0000 H       1  UNL1        0.0274
     59 H           2.8469   -3.1832    0.0000 H       1  UNL1        0.0274
     60 H           3.9590   -3.1832    0.0000 H       1  UNL1        0.0274
     61 H           4.8059   -2.9563    0.0000 H       1  UNL1        0.0274
     62 H           4.5790   -2.1093    0.0000 H       1  UNL1        0.0274
@<TRIPOS>BOND
     1     1     7    1
     2     1    10    1
     3     2    12    2
     4     3    18    1
     5     3    28    1
     6     4    17    1
     7     4    45    1
     8     5    20    1
     9     5    46    1
    10     6    23    1
    11     6    47    1
    12     7     8    1
    13     7     9    1
    14     7    33    1
    15     8    12    1
    16     8    34    1
    17     8    35    1
    18     9    13   ar
    19     9    15   ar
    20    10    11   ar
    21    10    14   ar
    22    11    12    1
    23    11    17   ar
    24    13    16    1
    25    13    18   ar
    26    14    19    1
    27    14    20   ar
    28    15    22   ar
    29    15    36    1
    30    16    24    1
    31    16    37    1
    32    16    38    1
    33    17    21   ar
    34    18    23   ar
    35    19    25    1
    36    19    39    1
    37    19    40    1
    38    20    21   ar
    39    21    41    1
    40    22    23   ar
    41    22    42    1
    42    24    26    2
    43    24    43    1
    44    25    27    2
    45    25    44    1
    46    26    29    1
    47    26    30    1
    48    27    31    1
    49    27    32    1
    50    28    48    1
    51    28    49    1
    52    28    50    1
    53    29    51    1
    54    29    52    1
    55    29    56    1
    56    30    53    1
    57    30    54    1
    58    30    55    1
    59    31    57    1
    60    31    58    1
    61    31    59    1
    62    32    60    1
    63    32    61    1
    64    32    62    1
