@<TRIPOS>MOLECULE
IMPHY007125
 16 17 0 0 0
SMALL
GASTEIGER

@<TRIPOS>ATOM
      1 O           5.2619   -0.3776    0.0000 O.3     1  UNL1       -0.4564
      2 O           4.9889    1.3776    0.0000 O.2     1  UNL1       -0.2449
      3 C           3.7320   -0.8776    0.0000 C.ar    1  UNL1        0.0037
      4 C           3.7320    0.1224    0.0000 C.ar    1  UNL1        0.0654
      5 C           4.6783   -1.1824    0.0000 C.3     1  UNL1        0.1186
      6 C           2.8660   -1.3776    0.0000 C.ar    1  UNL1       -0.0546
      7 C           4.6783    0.4271    0.0000 C.2     1  UNL1        0.3399
      8 C           2.8660    0.6224    0.0000 C.ar    1  UNL1       -0.0474
      9 C           2.0000   -0.8776    0.0000 C.ar    1  UNL1       -0.0614
     10 C           2.0000    0.1224    0.0000 C.ar    1  UNL1       -0.0610
     11 H           4.4272   -1.7493    0.0000 H       1  UNL1        0.0749
     12 H           5.2156   -1.4916    0.0000 H       1  UNL1        0.0749
     13 H           2.8660   -1.9976    0.0000 H       1  UNL1        0.0622
     14 H           2.8660    1.2424    0.0000 H       1  UNL1        0.0626
     15 H           1.4631   -1.1876    0.0000 H       1  UNL1        0.0618
     16 H           1.4631    0.4324    0.0000 H       1  UNL1        0.0618
@<TRIPOS>BOND
     1     1     5    1
     2     1     7    1
     3     2     7    2
     4     3     4   ar
     5     3     5    1
     6     3     6   ar
     7     4     7    1
     8     4     8   ar
     9     5    11    1
    10     5    12    1
    11     6     9   ar
    12     6    13    1
    13     8    10   ar
    14     8    14    1
    15     9    10   ar
    16     9    15    1
    17    10    16    1
