@<TRIPOS>MOLECULE
IMPHY008110
 161 164 0 0 0
SMALL
GASTEIGER

@<TRIPOS>ATOM
      1 O          24.5165   -3.2258    0.0000 O.3     1  UNL1       -0.4608
      2 O          23.6563   -1.7225    0.0000 O.2     1  UNL1       -0.2508
      3 C          29.9096   -0.1735    0.0000 C.3     1  UNL1       -0.0196
      4 C          29.9096   -1.1735    0.0000 C.3     1  UNL1       -0.0051
      5 C          30.8558    0.1313    0.0000 C.3     1  UNL1       -0.0322
      6 C          27.2675   -1.6803    0.0000 C.3     1  UNL1       -0.0073
      7 C          29.0436   -1.6735    0.0000 C.2     1  UNL1       -0.0633
      8 C          27.2595   -2.7219    0.0000 C.3     1  UNL1       -0.0231
      9 C          28.1775   -1.1735    0.0000 C.2     1  UNL1       -0.0636
     10 C          30.8558   -1.4782    0.0000 C.3     1  UNL1       -0.0431
     11 C          29.0436    0.3265    0.0000 C.3     1  UNL1       -0.0429
     12 C          31.4394   -0.6735    0.0000 C.3     1  UNL1       -0.0486
     13 C          28.1775   -0.1735    0.0000 C.3     1  UNL1       -0.0304
     14 C          26.3241   -3.2716    0.0000 C.3     1  UNL1        0.0058
     15 C          29.0596   -2.7150    0.0000 C.3     1  UNL1       -0.0306
     16 C          28.1616   -3.2427    0.0000 C.3     1  UNL1       -0.0451
     17 C          26.3407   -1.1162    0.0000 C.3     1  UNL1       -0.0403
     18 C          31.1665    1.0818    0.0000 C.3     1  UNL1       -0.0402
     19 C          29.9096    0.8265    0.0000 C.3     1  UNL1       -0.0585
     20 C          29.9096   -2.1735    0.0000 C.3     1  UNL1       -0.0553
     21 C          25.3844   -2.7291    0.0000 C.3     1  UNL1        0.1085
     22 C          25.3928   -1.6442    0.0000 C.3     1  UNL1       -0.0144
     23 C          27.2752   -0.6803    0.0000 C.3     1  UNL1       -0.0556
     24 C          25.8274   -4.1396    0.0000 C.3     1  UNL1       -0.0562
     25 C          26.8274   -4.1357    0.0000 C.3     1  UNL1       -0.0562
     26 C          32.1450    1.2880    0.0000 C.3     1  UNL1       -0.0465
     27 C          30.4986    1.8261    0.0000 C.3     1  UNL1       -0.0621
     28 C          32.4556    2.2385    0.0000 C.3     1  UNL1       -0.0315
     29 C          23.6524   -2.7224    0.0000 C.2     1  UNL1        0.3074
     30 C          33.4341    2.4448    0.0000 C.2     1  UNL1       -0.0740
     31 C          33.7448    3.3953    0.0000 C.3     1  UNL1       -0.0258
     32 C          22.7845   -3.2191    0.0000 C.3     1  UNL1        0.0449
     33 C          34.1020    1.7004    0.0000 C.2     1  UNL1       -0.0992
     34 C          21.9204   -2.7158    0.0000 C.3     1  UNL1       -0.0430
     35 C          34.7233    3.6015    0.0000 C.3     1  UNL1       -0.0590
     36 C          33.0770    4.1396    0.0000 C.3     1  UNL1       -0.0590
     37 C          21.0524   -3.2124    0.0000 C.3     1  UNL1       -0.0526
     38 C          20.1883   -2.7091    0.0000 C.3     1  UNL1       -0.0530
     39 C          19.3204   -3.2058    0.0000 C.3     1  UNL1       -0.0531
     40 C          18.4563   -2.7024    0.0000 C.3     1  UNL1       -0.0531
     41 C          17.5883   -3.1991    0.0000 C.3     1  UNL1       -0.0531
     42 C          16.7242   -2.6958    0.0000 C.3     1  UNL1       -0.0531
     43 C          15.8563   -3.1924    0.0000 C.3     1  UNL1       -0.0531
     44 C          14.9922   -2.6891    0.0000 C.3     1  UNL1       -0.0531
     45 C          14.1243   -3.1857    0.0000 C.3     1  UNL1       -0.0531
     46 C          13.2602   -2.6824    0.0000 C.3     1  UNL1       -0.0531
     47 C          12.3922   -3.1791    0.0000 C.3     1  UNL1       -0.0531
     48 C          11.5281   -2.6757    0.0000 C.3     1  UNL1       -0.0531
     49 C          10.6602   -3.1724    0.0000 C.3     1  UNL1       -0.0531
     50 C           9.7961   -2.6690    0.0000 C.3     1  UNL1       -0.0531
     51 C           8.9282   -3.1657    0.0000 C.3     1  UNL1       -0.0531
     52 C           8.0641   -2.6624    0.0000 C.3     1  UNL1       -0.0531
     53 C           7.1961   -3.1590    0.0000 C.3     1  UNL1       -0.0531
     54 C           6.3320   -2.6557    0.0000 C.3     1  UNL1       -0.0531
     55 C           5.4641   -3.1524    0.0000 C.3     1  UNL1       -0.0531
     56 C           4.6000   -2.6490    0.0000 C.3     1  UNL1       -0.0531
     57 C           3.7320   -3.1457    0.0000 C.3     1  UNL1       -0.0533
     58 C           2.8680   -2.6423    0.0000 C.3     1  UNL1       -0.0559
     59 C           2.0000   -3.1390    0.0000 C.3     1  UNL1       -0.0653
     60 H          31.6955    0.2632    0.0000 H       1  UNL1        0.0309
     61 H          27.2628   -3.5719    0.0000 H       1  UNL1        0.0316
     62 H          30.6048   -2.0451    0.0000 H       1  UNL1        0.0274
     63 H          31.3932   -1.7874    0.0000 H       1  UNL1        0.0274
     64 H          29.4421    0.8015    0.0000 H       1  UNL1        0.0274
     65 H          28.6450    0.8015    0.0000 H       1  UNL1        0.0274
     66 H          31.9003   -1.0882    0.0000 H       1  UNL1        0.0268
     67 H          31.9003   -0.2587    0.0000 H       1  UNL1        0.0268
     68 H          27.9655    0.4092    0.0000 H       1  UNL1        0.0310
     69 H          27.5669   -0.2811    0.0000 H       1  UNL1        0.0310
     70 H          29.2776   -3.2954    0.0000 H       1  UNL1        0.0310
     71 H          29.6688   -2.5995    0.0000 H       1  UNL1        0.0310
     72 H          27.7643   -3.7187    0.0000 H       1  UNL1        0.0271
     73 H          28.5625   -3.7156    0.0000 H       1  UNL1        0.0271
     74 H          26.7489   -0.6496    0.0000 H       1  UNL1        0.0275
     75 H          25.9508   -0.6342    0.0000 H       1  UNL1        0.0275
     76 H          31.3591    1.6711    0.0000 H       1  UNL1        0.0301
     77 H          30.5296    0.8265    0.0000 H       1  UNL1        0.0235
     78 H          29.9096    1.4465    0.0000 H       1  UNL1        0.0235
     79 H          29.2896    0.8265    0.0000 H       1  UNL1        0.0235
     80 H          29.2896   -2.1735    0.0000 H       1  UNL1        0.0238
     81 H          29.9096   -2.7935    0.0000 H       1  UNL1        0.0238
     82 H          30.5296   -2.1735    0.0000 H       1  UNL1        0.0238
     83 H          25.3832   -3.3491    0.0000 H       1  UNL1        0.0739
     84 H          25.1883   -1.0589    0.0000 H       1  UNL1        0.0301
     85 H          24.7811   -1.7456    0.0000 H       1  UNL1        0.0301
     86 H          27.8952   -0.6851    0.0000 H       1  UNL1        0.0238
     87 H          27.2800   -0.0604    0.0000 H       1  UNL1        0.0238
     88 H          26.6553   -0.6756    0.0000 H       1  UNL1        0.0238
     89 H          26.2917   -4.4478    0.0000 H       1  UNL1        0.0236
     90 H          27.1395   -4.6715    0.0000 H       1  UNL1        0.0236
     91 H          27.3631   -3.8236    0.0000 H       1  UNL1        0.0236
     92 H          25.2893   -3.8316    0.0000 H       1  UNL1        0.0236
     93 H          25.5195   -4.6777    0.0000 H       1  UNL1        0.0236
     94 H          26.3655   -4.4475    0.0000 H       1  UNL1        0.0236
     95 H          32.1655    0.6684    0.0000 H       1  UNL1        0.0271
     96 H          32.7588    1.2007    0.0000 H       1  UNL1        0.0271
     97 H          30.9601    2.2402    0.0000 H       1  UNL1        0.0233
     98 H          30.0846    2.2876    0.0000 H       1  UNL1        0.0233
     99 H          30.0371    1.4120    0.0000 H       1  UNL1        0.0233
    100 H          32.4351    2.8582    0.0000 H       1  UNL1        0.0310
    101 H          31.8418    2.3259    0.0000 H       1  UNL1        0.0310
    102 H          33.1381    3.2674    0.0000 H       1  UNL1        0.0340
    103 H          22.3841   -3.6925    0.0000 H       1  UNL1        0.0377
    104 H          23.1811   -3.6956    0.0000 H       1  UNL1        0.0377
    105 H          33.9094    1.1111    0.0000 H       1  UNL1        0.0534
    106 H          34.7087    1.8283    0.0000 H       1  UNL1        0.0534
    107 H          22.3207   -2.2424    0.0000 H       1  UNL1        0.0270
    108 H          21.5237   -2.2393    0.0000 H       1  UNL1        0.0270
    109 H          34.8512    2.9948    0.0000 H       1  UNL1        0.0235
    110 H          35.3300    3.7294    0.0000 H       1  UNL1        0.0235
    111 H          34.5954    4.2082    0.0000 H       1  UNL1        0.0235
    112 H          33.5384    4.5536    0.0000 H       1  UNL1        0.0235
    113 H          32.6629    4.6010    0.0000 H       1  UNL1        0.0235
    114 H          32.6155    3.7255    0.0000 H       1  UNL1        0.0235
    115 H          20.6521   -3.6858    0.0000 H       1  UNL1        0.0265
    116 H          21.4491   -3.6889    0.0000 H       1  UNL1        0.0265
    117 H          20.5887   -2.2357    0.0000 H       1  UNL1        0.0265
    118 H          19.7916   -2.2326    0.0000 H       1  UNL1        0.0265
    119 H          18.9200   -3.6792    0.0000 H       1  UNL1        0.0265
    120 H          19.7171   -3.6822    0.0000 H       1  UNL1        0.0265
    121 H          18.8566   -2.2290    0.0000 H       1  UNL1        0.0265
    122 H          18.0596   -2.2260    0.0000 H       1  UNL1        0.0265
    123 H          17.1880   -3.6725    0.0000 H       1  UNL1        0.0265
    124 H          17.9850   -3.6756    0.0000 H       1  UNL1        0.0265
    125 H          17.1246   -2.2223    0.0000 H       1  UNL1        0.0265
    126 H          16.3276   -2.2193    0.0000 H       1  UNL1        0.0265
    127 H          15.4559   -3.6658    0.0000 H       1  UNL1        0.0265
    128 H          16.2530   -3.6689    0.0000 H       1  UNL1        0.0265
    129 H          15.3926   -2.2157    0.0000 H       1  UNL1        0.0265
    130 H          14.5955   -2.2126    0.0000 H       1  UNL1        0.0265
    131 H          13.7239   -3.6591    0.0000 H       1  UNL1        0.0265
    132 H          14.5210   -3.6622    0.0000 H       1  UNL1        0.0265
    133 H          13.6605   -2.2090    0.0000 H       1  UNL1        0.0265
    134 H          12.8635   -2.2059    0.0000 H       1  UNL1        0.0265
    135 H          11.9919   -3.6525    0.0000 H       1  UNL1        0.0265
    136 H          12.7889   -3.6555    0.0000 H       1  UNL1        0.0265
    137 H          11.9285   -2.2023    0.0000 H       1  UNL1        0.0265
    138 H          11.1314   -2.1992    0.0000 H       1  UNL1        0.0265
    139 H          10.2598   -3.6458    0.0000 H       1  UNL1        0.0265
    140 H          11.0569   -3.6489    0.0000 H       1  UNL1        0.0265
    141 H          10.1965   -2.1956    0.0000 H       1  UNL1        0.0265
    142 H           9.3994   -2.1926    0.0000 H       1  UNL1        0.0265
    143 H           8.5278   -3.6391    0.0000 H       1  UNL1        0.0265
    144 H           9.3248   -3.6422    0.0000 H       1  UNL1        0.0265
    145 H           8.4644   -2.1890    0.0000 H       1  UNL1        0.0265
    146 H           7.6674   -2.1859    0.0000 H       1  UNL1        0.0265
    147 H           6.7958   -3.6324    0.0000 H       1  UNL1        0.0265
    148 H           7.5928   -3.6355    0.0000 H       1  UNL1        0.0265
    149 H           6.7324   -2.1823    0.0000 H       1  UNL1        0.0265
    150 H           5.9353   -2.1792    0.0000 H       1  UNL1        0.0265
    151 H           5.0637   -3.6258    0.0000 H       1  UNL1        0.0265
    152 H           5.8608   -3.6288    0.0000 H       1  UNL1        0.0265
    153 H           5.0003   -2.1756    0.0000 H       1  UNL1        0.0265
    154 H           4.2033   -2.1725    0.0000 H       1  UNL1        0.0265
    155 H           3.3317   -3.6191    0.0000 H       1  UNL1        0.0265
    156 H           4.1287   -3.6222    0.0000 H       1  UNL1        0.0265
    157 H           3.2683   -2.1689    0.0000 H       1  UNL1        0.0263
    158 H           2.4712   -2.1659    0.0000 H       1  UNL1        0.0263
    159 H           1.6921   -2.6009    0.0000 H       1  UNL1        0.0230
    160 H           1.4619   -3.4469    0.0000 H       1  UNL1        0.0230
    161 H           2.3079   -3.6771    0.0000 H       1  UNL1        0.0230
@<TRIPOS>BOND
     1    21     1    1
     2     1    29    1
     3     2    29    2
     4     3     4    1
     5     3     5    1
     6     3    11    1
     7     3    19    1
     8     4     7    1
     9     4    10    1
    10     4    20    1
    11     5    12    1
    12     5    18    1
    13     5    60    1
    14     6     8    1
    15     6     9    1
    16     6    17    1
    17     6    23    1
    18     7     9    2
    19     7    15    1
    20     8    14    1
    21     8    16    1
    22     8    61    1
    23     9    13    1
    24    10    12    1
    25    10    62    1
    26    10    63    1
    27    11    13    1
    28    11    64    1
    29    11    65    1
    30    12    66    1
    31    12    67    1
    32    13    68    1
    33    13    69    1
    34    14    21    1
    35    14    24    1
    36    14    25    1
    37    15    16    1
    38    15    70    1
    39    15    71    1
    40    16    72    1
    41    16    73    1
    42    17    22    1
    43    17    74    1
    44    17    75    1
    45    18    26    1
    46    18    27    1
    47    18    76    1
    48    19    77    1
    49    19    78    1
    50    19    79    1
    51    20    80    1
    52    20    81    1
    53    20    82    1
    54    21    22    1
    55    21    83    1
    56    22    84    1
    57    22    85    1
    58    23    86    1
    59    23    87    1
    60    23    88    1
    61    24    92    1
    62    24    93    1
    63    24    94    1
    64    25    89    1
    65    25    90    1
    66    25    91    1
    67    26    28    1
    68    26    95    1
    69    26    96    1
    70    27    97    1
    71    27    98    1
    72    27    99    1
    73    28    30    1
    74    28   100    1
    75    28   101    1
    76    29    32    1
    77    30    31    1
    78    30    33    2
    79    31    35    1
    80    31    36    1
    81    31   102    1
    82    32    34    1
    83    32   103    1
    84    32   104    1
    85    33   105    1
    86    33   106    1
    87    34    37    1
    88    34   107    1
    89    34   108    1
    90    35   109    1
    91    35   110    1
    92    35   111    1
    93    36   112    1
    94    36   113    1
    95    36   114    1
    96    37    38    1
    97    37   115    1
    98    37   116    1
    99    38    39    1
   100    38   117    1
   101    38   118    1
   102    39    40    1
   103    39   119    1
   104    39   120    1
   105    40    41    1
   106    40   121    1
   107    40   122    1
   108    41    42    1
   109    41   123    1
   110    41   124    1
   111    42    43    1
   112    42   125    1
   113    42   126    1
   114    43    44    1
   115    43   127    1
   116    43   128    1
   117    44    45    1
   118    44   129    1
   119    44   130    1
   120    45    46    1
   121    45   131    1
   122    45   132    1
   123    46    47    1
   124    46   133    1
   125    46   134    1
   126    47    48    1
   127    47   135    1
   128    47   136    1
   129    48    49    1
   130    48   137    1
   131    48   138    1
   132    49    50    1
   133    49   139    1
   134    49   140    1
   135    50    51    1
   136    50   141    1
   137    50   142    1
   138    51    52    1
   139    51   143    1
   140    51   144    1
   141    52    53    1
   142    52   145    1
   143    52   146    1
   144    53    54    1
   145    53   147    1
   146    53   148    1
   147    54    55    1
   148    54   149    1
   149    54   150    1
   150    55    56    1
   151    55   151    1
   152    55   152    1
   153    56    57    1
   154    56   153    1
   155    56   154    1
   156    57    58    1
   157    57   155    1
   158    57   156    1
   159    58    59    1
   160    58   157    1
   161    58   158    1
   162    59   159    1
   163    59   160    1
   164    59   161    1
