@<TRIPOS>MOLECULE
IMPHY004572
 50 52 0 0 0
SMALL
GASTEIGER

@<TRIPOS>ATOM
      1 O           4.5787    0.1857    0.0000 O.3     1  UNL1       -0.4535
      2 O           2.8862    2.1565    0.0000 O.3     1  UNL1       -0.3868
      3 O           7.1188   -0.3031    0.0000 O.3     1  UNL1       -0.4582
      4 O           6.5309   -2.7355    0.0000 O.3     1  UNL1       -0.3774
      5 O           2.8660    0.1969    0.0000 O.2     1  UNL1       -0.2453
      6 O           7.9848   -1.7808    0.0000 O.2     1  UNL1       -0.2476
      7 N           5.4255    2.6299    0.0000 N.3     1  UNL1       -0.2861
      8 C           5.4255    1.6522    0.0000 C.3     1  UNL1        0.0749
      9 C           4.5787    1.1634    0.0000 C.3     1  UNL1        0.1495
     10 C           3.8842    2.0922    0.0000 C.3     1  UNL1        0.1065
     11 C           4.4056    2.8743    0.0000 C.3     1  UNL1        0.0295
     12 C           6.2721    1.1634    0.0000 C.2     1  UNL1       -0.0147
     13 C           6.3609    2.8960    0.0000 C.3     1  UNL1        0.0183
     14 C           6.9692    2.0922    0.0000 C.2     1  UNL1       -0.0660
     15 C           6.2721    0.1857    0.0000 C.3     1  UNL1        0.1153
     16 C           5.4255   -1.2808    0.0000 C.3     1  UNL1       -0.0006
     17 C           6.2721   -1.7696    0.0000 C.3     1  UNL1        0.1620
     18 C           4.5787   -1.7696    0.0000 C.3     1  UNL1       -0.0155
     19 C           3.7320   -0.3031    0.0000 C.2     1  UNL1        0.3352
     20 C           3.7320   -1.2808    0.0000 C.2     1  UNL1        0.0328
     21 C           7.1188   -1.2808    0.0000 C.2     1  UNL1        0.3394
     22 C           5.4255   -0.2808    0.0000 C.3     1  UNL1       -0.0590
     23 C           5.5651   -2.4768    0.0000 C.3     1  UNL1       -0.0253
     24 C           2.8660   -1.7808    0.0000 C.2     1  UNL1       -0.0771
     25 C           2.0000   -1.2808    0.0000 C.3     1  UNL1       -0.0461
     26 H           5.4255    0.8022    0.0000 H       1  UNL1        0.0548
     27 H           3.7721    0.8952    0.0000 H       1  UNL1        0.0780
     28 H           3.5888    1.5470    0.0000 H       1  UNL1        0.0644
     29 H           4.6198    3.4561    0.0000 H       1  UNL1        0.0453
     30 H           3.8529    3.1553    0.0000 H       1  UNL1        0.0453
     31 H           6.8976    3.2064    0.0000 H       1  UNL1        0.0470
     32 H           6.1190    3.4669    0.0000 H       1  UNL1        0.0470
     33 H           7.5892    2.0934    0.0000 H       1  UNL1        0.0586
     34 H           5.6615    0.2934    0.0000 H       1  UNL1        0.0746
     35 H           6.0601   -0.3969    0.0000 H       1  UNL1        0.0746
     36 H           2.6114    2.7122    0.0000 H       1  UNL1        0.2100
     37 H           5.9624   -0.9708    0.0000 H       1  UNL1        0.0334
     38 H           4.1802   -2.2445    0.0000 H       1  UNL1        0.0319
     39 H           4.9772   -2.2446    0.0000 H       1  UNL1        0.0319
     40 H           6.0455   -0.2808    0.0000 H       1  UNL1        0.0234
     41 H           5.4254    0.3392    0.0000 H       1  UNL1        0.0234
     42 H           4.8055   -0.2808    0.0000 H       1  UNL1        0.0234
     43 H           5.1266   -2.0384    0.0000 H       1  UNL1        0.0263
     44 H           5.1267   -2.9152    0.0000 H       1  UNL1        0.0263
     45 H           6.0035   -2.9151    0.0000 H       1  UNL1        0.0263
     46 H           2.8660   -2.4008    0.0000 H       1  UNL1        0.0574
     47 H           7.1298   -2.8960    0.0000 H       1  UNL1        0.2109
     48 H           2.3100   -0.7438    0.0000 H       1  UNL1        0.0272
     49 H           1.4631   -0.9708    0.0000 H       1  UNL1        0.0272
     50 H           1.6900   -1.8177    0.0000 H       1  UNL1        0.0272
@<TRIPOS>BOND
     1     1     9    1
     2     1    19    1
     3    10     2    1
     4     2    36    1
     5     3    15    1
     6     3    21    1
     7    17     4    1
     8     4    47    1
     9     5    19    2
    10     6    21    2
    11     7     8    1
    12     7    11    1
    13     7    13    1
    14     8     9    1
    15     8    12    1
    16     8    26    1
    17     9    10    1
    18     9    27    1
    19    10    11    1
    20    10    28    1
    21    11    29    1
    22    11    30    1
    23    12    14    2
    24    12    15    1
    25    13    14    1
    26    13    31    1
    27    13    32    1
    28    14    33    1
    29    15    34    1
    30    15    35    1
    31    16    17    1
    32    16    18    1
    33    16    22    1
    34    16    37    1
    35    17    21    1
    36    17    23    1
    37    18    20    1
    38    18    38    1
    39    18    39    1
    40    19    20    1
    41    20    24    2
    42    22    40    1
    43    22    41    1
    44    22    42    1
    45    23    43    1
    46    23    44    1
    47    23    45    1
    48    24    25    1
    49    24    46    1
    50    25    48    1
    51    25    49    1
    52    25    50    1
