@<TRIPOS>MOLECULE
IMPHY006534
 39 38 0 0 0
SMALL
GASTEIGER

@<TRIPOS>ATOM
      1 C           5.4641    0.2500    0.0000 C.3     1  UNL1       -0.0283
      2 C           4.5981   -0.2500    0.0000 C.3     1  UNL1       -0.0308
      3 C           6.3301   -0.2500    0.0000 C.2     1  UNL1       -0.0723
      4 C           3.7320    0.2500    0.0000 C.2     1  UNL1       -0.0850
      5 C           2.8660   -0.2500    0.0000 C.2     1  UNL1       -0.0796
      6 C           6.3301   -1.2500    0.0000 C.3     1  UNL1       -0.0435
      7 C           7.1962    0.2500    0.0000 C.2     1  UNL1       -0.0628
      8 C           2.0000    0.2500    0.0000 C.3     1  UNL1       -0.0440
      9 C           2.8660   -1.2500    0.0000 C.3     1  UNL1       -0.0440
     10 C           8.0622   -0.2500    0.0000 C.2     1  UNL1       -0.0616
     11 C           8.9282    0.2500    0.0000 C.2     1  UNL1       -0.0591
     12 C           9.7942   -0.2500    0.0000 C.2     1  UNL1       -0.0546
     13 C           9.7942   -1.2500    0.0000 C.3     1  UNL1       -0.0400
     14 C          10.6603    0.2500    0.0000 C.2     1  UNL1       -0.0842
     15 C          10.6603    1.2500    0.0000 C.3     1  UNL1       -0.0463
     16 H           5.8626    0.7249    0.0000 H       1  UNL1        0.0313
     17 H           5.0656    0.7249    0.0000 H       1  UNL1        0.0313
     18 H           4.1996   -0.7249    0.0000 H       1  UNL1        0.0310
     19 H           4.9966   -0.7249    0.0000 H       1  UNL1        0.0310
     20 H           3.7320    0.8700    0.0000 H       1  UNL1        0.0572
     21 H           5.7101   -1.2500    0.0000 H       1  UNL1        0.0274
     22 H           6.3301   -1.8700    0.0000 H       1  UNL1        0.0274
     23 H           6.9501   -1.2500    0.0000 H       1  UNL1        0.0274
     24 H           7.1962    0.8700    0.0000 H       1  UNL1        0.0617
     25 H           2.3100    0.7869    0.0000 H       1  UNL1        0.0274
     26 H           1.4631    0.5600    0.0000 H       1  UNL1        0.0274
     27 H           1.6900   -0.2869    0.0000 H       1  UNL1        0.0274
     28 H           2.2460   -1.2500    0.0000 H       1  UNL1        0.0274
     29 H           2.8660   -1.8700    0.0000 H       1  UNL1        0.0274
     30 H           3.4860   -1.2500    0.0000 H       1  UNL1        0.0274
     31 H           8.0622   -0.8700    0.0000 H       1  UNL1        0.0618
     32 H           8.9282    0.8700    0.0000 H       1  UNL1        0.0620
     33 H           9.1742   -1.2500    0.0000 H       1  UNL1        0.0277
     34 H           9.7942   -1.8700    0.0000 H       1  UNL1        0.0277
     35 H          10.4142   -1.2500    0.0000 H       1  UNL1        0.0277
     36 H          11.1972   -0.0600    0.0000 H       1  UNL1        0.0572
     37 H          11.2803    1.2500    0.0000 H       1  UNL1        0.0272
     38 H          10.6603    1.8700    0.0000 H       1  UNL1        0.0272
     39 H          10.0403    1.2500    0.0000 H       1  UNL1        0.0272
@<TRIPOS>BOND
     1     1     2    1
     2     1     3    1
     3     1    16    1
     4     1    17    1
     5     2     4    1
     6     2    18    1
     7     2    19    1
     8     3     6    1
     9     3     7    2
    10     4     5    2
    11     4    20    1
    12     5     8    1
    13     5     9    1
    14     6    21    1
    15     6    22    1
    16     6    23    1
    17     7    10    1
    18     7    24    1
    19     8    25    1
    20     8    26    1
    21     8    27    1
    22     9    28    1
    23     9    29    1
    24     9    30    1
    25    10    11    2
    26    10    31    1
    27    11    12    1
    28    11    32    1
    29    12    13    1
    30    12    14    2
    31    13    33    1
    32    13    34    1
    33    13    35    1
    34    14    15    1
    35    14    36    1
    36    15    37    1
    37    15    38    1
    38    15    39    1
