@<TRIPOS>MOLECULE
IMPHY005148
 71 75 0 0 0
SMALL
GASTEIGER

@<TRIPOS>ATOM
      1 O           6.5251   -2.9796    0.0000 O.3     1  UNL1       -0.3877
      2 O           8.7325   -0.0350    0.0000 O.3     1  UNL1       -0.3849
      3 O           7.4248    1.9705    0.0000 O.3     1  UNL1       -0.4549
      4 O           2.9755   -0.9225    0.0000 O.2     1  UNL1       -0.2918
      5 O           7.0677    3.6653    0.0000 O.2     1  UNL1       -0.2453
      6 C           6.5251   -0.9796    0.0000 C.3     1  UNL1        0.0026
      7 C           6.5251   -1.9796    0.0000 C.3     1  UNL1        0.0752
      8 C           5.6591   -2.4796    0.0000 C.3     1  UNL1       -0.0042
      9 C           7.4714   -0.6748    0.0000 C.3     1  UNL1       -0.0008
     10 C           4.7931   -1.9796    0.0000 C.3     1  UNL1       -0.0191
     11 C           5.6591   -0.4796    0.0000 C.3     1  UNL1       -0.0444
     12 C           7.4714   -2.2843    0.0000 C.3     1  UNL1       -0.0228
     13 C           8.0550   -1.4796    0.0000 C.3     1  UNL1       -0.0443
     14 C           4.7931   -0.9796    0.0000 C.3     1  UNL1       -0.0481
     15 C           3.8831   -2.4864    0.0000 C.3     1  UNL1        0.0545
     16 C           7.7820    0.2757    0.0000 C.3     1  UNL1        0.1037
     17 C           6.5251    0.0204    0.0000 C.3     1  UNL1       -0.0566
     18 C           5.6752   -3.5211    0.0000 C.3     1  UNL1       -0.0287
     19 C           3.8751   -3.5280    0.0000 C.2     1  UNL1       -0.0561
     20 C           4.7771   -4.0488    0.0000 C.2     1  UNL1       -0.0832
     21 C           8.0927    1.2262    0.0000 C.3     1  UNL1        0.1355
     22 C           3.8908   -1.4865    0.0000 C.3     1  UNL1       -0.0485
     23 C           6.8315    0.5863    0.0000 C.3     1  UNL1       -0.0323
     24 C           2.9562   -1.9224    0.0000 C.2     1  UNL1        0.1659
     25 C           2.9396   -4.0778    0.0000 C.3     1  UNL1       -0.0122
     26 C           9.0712    1.4324    0.0000 C.3     1  UNL1        0.0088
     27 C           2.0084   -2.4503    0.0000 C.2     1  UNL1       -0.0220
     28 C           2.0000   -3.5352    0.0000 C.2     1  UNL1       -0.0767
     29 C           9.3818    2.3829    0.0000 C.2     1  UNL1       -0.0594
     30 C           7.7355    2.9210    0.0000 C.2     1  UNL1        0.3352
     31 C           8.7140    3.1272    0.0000 C.2     1  UNL1        0.0326
     32 C          10.3604    2.5892    0.0000 C.3     1  UNL1       -0.0429
     33 C           9.0247    4.0778    0.0000 C.3     1  UNL1       -0.0330
     34 H           6.3985   -2.8989    0.0000 H       1  UNL1        0.0335
     35 H           8.3111   -0.5430    0.0000 H       1  UNL1        0.0336
     36 H           5.5292   -1.5546    0.0000 H       1  UNL1        0.0317
     37 H           6.0576   -0.0046    0.0000 H       1  UNL1        0.0272
     38 H           5.2606   -0.0046    0.0000 H       1  UNL1        0.0272
     39 H           7.2203   -2.8512    0.0000 H       1  UNL1        0.0293
     40 H           8.0087   -2.5935    0.0000 H       1  UNL1        0.0293
     41 H           8.5158   -1.8943    0.0000 H       1  UNL1        0.0270
     42 H           8.5158   -1.0648    0.0000 H       1  UNL1        0.0270
     43 H           4.5810   -0.3970    0.0000 H       1  UNL1        0.0269
     44 H           4.1825   -1.0872    0.0000 H       1  UNL1        0.0269
     45 H           7.1451    0.0204    0.0000 H       1  UNL1        0.0236
     46 H           6.5251    0.6404    0.0000 H       1  UNL1        0.0236
     47 H           5.9051    0.0204    0.0000 H       1  UNL1        0.0236
     48 H           5.8932   -4.1015    0.0000 H       1  UNL1        0.0311
     49 H           6.2843   -3.4056    0.0000 H       1  UNL1        0.0311
     50 H           7.0621   -3.2896    0.0000 H       1  UNL1        0.2102
     51 H           4.7795   -4.6688    0.0000 H       1  UNL1        0.0572
     52 H           7.2610    1.0509    0.0000 H       1  UNL1        0.0766
     53 H           4.5108   -1.4912    0.0000 H       1  UNL1        0.0242
     54 H           3.8956   -0.8665    0.0000 H       1  UNL1        0.0242
     55 H           3.2708   -1.4817    0.0000 H       1  UNL1        0.0242
     56 H           7.0241    1.1757    0.0000 H       1  UNL1        0.0259
     57 H           6.2422    0.7789    0.0000 H       1  UNL1        0.0259
     58 H           6.6389   -0.0030    0.0000 H       1  UNL1        0.0259
     59 H           2.5423   -4.5537    0.0000 H       1  UNL1        0.0353
     60 H           3.3406   -4.5506    0.0000 H       1  UNL1        0.0353
     61 H           8.8604   -0.6417    0.0000 H       1  UNL1        0.2103
     62 H           9.0918    0.8128    0.0000 H       1  UNL1        0.0347
     63 H           9.6850    1.3451    0.0000 H       1  UNL1        0.0347
     64 H           1.4750   -2.1341    0.0000 H       1  UNL1        0.0649
     65 H           1.4619   -3.8432    0.0000 H       1  UNL1        0.0576
     66 H          10.4882    1.9825    0.0000 H       1  UNL1        0.0275
     67 H          10.9670    2.7170    0.0000 H       1  UNL1        0.0275
     68 H          10.2325    3.1958    0.0000 H       1  UNL1        0.0275
     69 H           9.6140    3.8851    0.0000 H       1  UNL1        0.0280
     70 H           9.2173    4.6671    0.0000 H       1  UNL1        0.0280
     71 H           8.4354    4.2704    0.0000 H       1  UNL1        0.0280
@<TRIPOS>BOND
     1     7     1    1
     2     1    50    1
     3    16     2    1
     4     2    61    1
     5     3    21    1
     6     3    30    1
     7     4    24    2
     8     5    30    2
     9     6     7    1
    10     6     9    1
    11     6    11    1
    12     6    17    1
    13     7     8    1
    14     7    12    1
    15     8    10    1
    16     8    18    1
    17     8    34    1
    18     9    13    1
    19     9    16    1
    20     9    35    1
    21    10    14    1
    22    10    15    1
    23    10    36    1
    24    11    14    1
    25    11    37    1
    26    11    38    1
    27    12    13    1
    28    12    39    1
    29    12    40    1
    30    13    41    1
    31    13    42    1
    32    14    43    1
    33    14    44    1
    34    15    19    1
    35    15    22    1
    36    15    24    1
    37    16    21    1
    38    16    23    1
    39    17    45    1
    40    17    46    1
    41    17    47    1
    42    18    20    1
    43    18    48    1
    44    18    49    1
    45    19    20    2
    46    19    25    1
    47    20    51    1
    48    21    26    1
    49    21    52    1
    50    22    53    1
    51    22    54    1
    52    22    55    1
    53    23    56    1
    54    23    57    1
    55    23    58    1
    56    24    27    1
    57    25    28    1
    58    25    59    1
    59    25    60    1
    60    26    29    1
    61    26    62    1
    62    26    63    1
    63    27    28    2
    64    27    64    1
    65    28    65    1
    66    29    31    2
    67    29    32    1
    68    30    31    1
    69    31    33    1
    70    32    66    1
    71    32    67    1
    72    32    68    1
    73    33    69    1
    74    33    70    1
    75    33    71    1
