@<TRIPOS>MOLECULE
IMPHY000228
 83 87 0 0 0
SMALL
GASTEIGER

@<TRIPOS>ATOM
      1 O           2.4967   -1.8447    0.0000 O.3     1  UNL1       -0.3518
      2 O           2.9933   -2.7126    0.0000 O.3     1  UNL1       -0.3518
      3 N          10.5678    3.1191    0.0000 N.3     1  UNL1       -0.3127
      4 C           8.0218    0.7071    0.0000 C.3     1  UNL1       -0.0258
      5 C           8.0218   -0.2929    0.0000 C.3     1  UNL1       -0.0323
      6 C           7.1558   -0.7929    0.0000 C.3     1  UNL1       -0.0344
      7 C           6.2897   -0.2929    0.0000 C.3     1  UNL1       -0.0323
      8 C           5.3797   -0.7997    0.0000 C.3     1  UNL1       -0.0258
      9 C           8.9680    1.0119    0.0000 C.3     1  UNL1       -0.0314
     10 C           7.1558    1.2071    0.0000 C.3     1  UNL1       -0.0468
     11 C           5.3717   -1.8413    0.0000 C.3     1  UNL1       -0.0305
     12 C           6.2897    0.7071    0.0000 C.3     1  UNL1       -0.0489
     13 C           8.9680   -0.5976    0.0000 C.3     1  UNL1       -0.0492
     14 C           7.1718   -1.8344    0.0000 C.3     1  UNL1       -0.0494
     15 C           9.5516    0.2071    0.0000 C.3     1  UNL1       -0.0491
     16 C           6.2738   -2.3621    0.0000 C.3     1  UNL1       -0.0493
     17 C           4.4529   -0.2356    0.0000 C.3     1  UNL1       -0.0422
     18 C           9.2787    1.9624    0.0000 C.3     1  UNL1       -0.0251
     19 C           8.0218    1.7071    0.0000 C.3     1  UNL1       -0.0590
     20 C           4.4363   -2.3910    0.0000 C.3     1  UNL1        0.0047
     21 C           5.3874    0.2003    0.0000 C.3     1  UNL1       -0.0590
     22 C           3.5050   -0.7636    0.0000 C.3     1  UNL1        0.0019
     23 C           3.4966   -1.8486    0.0000 C.3     1  UNL1        0.1695
     24 C          10.2572    2.1686    0.0000 C.3     1  UNL1        0.0105
     25 C           8.6108    2.7067    0.0000 C.3     1  UNL1       -0.0607
     26 C          10.9250    1.4243    0.0000 C.3     1  UNL1       -0.0370
     27 C          11.9035    1.6305    0.0000 C.3     1  UNL1       -0.0479
     28 C          11.5463    3.3253    0.0000 C.3     1  UNL1       -0.0013
     29 C          12.2142    2.5810    0.0000 C.3     1  UNL1       -0.0313
     30 C           3.4900   -3.5806    0.0000 C.3     1  UNL1        0.0397
     31 C           2.0000   -0.9767    0.0000 C.3     1  UNL1        0.0397
     32 C          13.1927    2.7872    0.0000 C.3     1  UNL1       -0.0613
     33 H           8.1117   -1.1381    0.0000 H       1  UNL1        0.0309
     34 H           7.8951   -1.2122    0.0000 H       1  UNL1        0.0306
     35 H           7.0259    0.1321    0.0000 H       1  UNL1        0.0309
     36 H           9.8077    1.1437    0.0000 H       1  UNL1        0.0309
     37 H           7.5543    1.6821    0.0000 H       1  UNL1        0.0271
     38 H           6.7572    1.6821    0.0000 H       1  UNL1        0.0271
     39 H           5.3741   -2.4613    0.0000 H       1  UNL1        0.0308
     40 H           6.0777    1.2897    0.0000 H       1  UNL1        0.0268
     41 H           5.6792    0.5995    0.0000 H       1  UNL1        0.0268
     42 H           8.7170   -1.1645    0.0000 H       1  UNL1        0.0268
     43 H           9.5054   -0.9068    0.0000 H       1  UNL1        0.0268
     44 H           7.3898   -2.4148    0.0000 H       1  UNL1        0.0268
     45 H           7.7810   -1.7189    0.0000 H       1  UNL1        0.0268
     46 H          10.0125   -0.2076    0.0000 H       1  UNL1        0.0268
     47 H          10.0125    0.6219    0.0000 H       1  UNL1        0.0268
     48 H           5.8765   -2.8381    0.0000 H       1  UNL1        0.0268
     49 H           6.6748   -2.8350    0.0000 H       1  UNL1        0.0268
     50 H           4.8611    0.2310    0.0000 H       1  UNL1        0.0272
     51 H           4.0630    0.2464    0.0000 H       1  UNL1        0.0272
     52 H           9.4713    2.5517    0.0000 H       1  UNL1        0.0316
     53 H           8.6418    1.7071    0.0000 H       1  UNL1        0.0235
     54 H           8.0218    2.3271    0.0000 H       1  UNL1        0.0235
     55 H           7.4018    1.7071    0.0000 H       1  UNL1        0.0235
     56 H           4.0390   -2.8670    0.0000 H       1  UNL1        0.0320
     57 H           4.8372   -2.8639    0.0000 H       1  UNL1        0.0320
     58 H           6.0074    0.1955    0.0000 H       1  UNL1        0.0235
     59 H           5.3922    0.8202    0.0000 H       1  UNL1        0.0235
     60 H           4.7675    0.2050    0.0000 H       1  UNL1        0.0235
     61 H           3.3005   -0.1783    0.0000 H       1  UNL1        0.0317
     62 H           2.8934   -0.8650    0.0000 H       1  UNL1        0.0317
     63 H          10.8638    2.2964    0.0000 H       1  UNL1        0.0463
     64 H           9.0723    3.1207    0.0000 H       1  UNL1        0.0233
     65 H           8.1968    3.1681    0.0000 H       1  UNL1        0.0233
     66 H           8.1494    2.2926    0.0000 H       1  UNL1        0.0233
     67 H          10.3987    1.0967    0.0000 H       1  UNL1        0.0280
     68 H          11.1563    0.8490    0.0000 H       1  UNL1        0.0280
     69 H          10.1538    3.5806    0.0000 H       1  UNL1        0.1222
     70 H          11.9241    1.0109    0.0000 H       1  UNL1        0.0269
     71 H          12.5173    1.5432    0.0000 H       1  UNL1        0.0269
     72 H          12.0727    3.6530    0.0000 H       1  UNL1        0.0427
     73 H          11.3151    3.9006    0.0000 H       1  UNL1        0.0427
     74 H          12.4068    3.1704    0.0000 H       1  UNL1        0.0310
     75 H           2.5381   -0.6688    0.0000 H       1  UNL1        0.0525
     76 H           1.6921   -0.4386    0.0000 H       1  UNL1        0.0525
     77 H           1.4619   -1.2847    0.0000 H       1  UNL1        0.0525
     78 H           2.9518   -3.8885    0.0000 H       1  UNL1        0.0525
     79 H           3.7979   -4.1187    0.0000 H       1  UNL1        0.0525
     80 H           4.0281   -3.2727    0.0000 H       1  UNL1        0.0525
     81 H          13.3205    2.1806    0.0000 H       1  UNL1        0.0233
     82 H          13.7994    2.9151    0.0000 H       1  UNL1        0.0233
     83 H          13.0648    3.3939    0.0000 H       1  UNL1        0.0233
@<TRIPOS>BOND
     1     1    23    1
     2     1    31    1
     3     2    23    1
     4     2    30    1
     5     3    24    1
     6     3    28    1
     7     3    69    1
     8     4     5    1
     9     4     9    1
    10     4    10    1
    11     4    19    1
    12     5     6    1
    13     5    13    1
    14     5    33    1
    15     6     7    1
    16     6    14    1
    17     6    34    1
    18     7     8    1
    19     7    12    1
    20     7    35    1
    21     8    11    1
    22     8    17    1
    23     8    21    1
    24     9    15    1
    25     9    18    1
    26     9    36    1
    27    10    12    1
    28    10    37    1
    29    10    38    1
    30    11    16    1
    31    11    20    1
    32    11    39    1
    33    12    40    1
    34    12    41    1
    35    13    15    1
    36    13    42    1
    37    13    43    1
    38    14    16    1
    39    14    44    1
    40    14    45    1
    41    15    46    1
    42    15    47    1
    43    16    48    1
    44    16    49    1
    45    17    22    1
    46    17    50    1
    47    17    51    1
    48    18    24    1
    49    18    25    1
    50    18    52    1
    51    19    53    1
    52    19    54    1
    53    19    55    1
    54    20    23    1
    55    20    56    1
    56    20    57    1
    57    21    58    1
    58    21    59    1
    59    21    60    1
    60    22    23    1
    61    22    61    1
    62    22    62    1
    63    24    26    1
    64    24    63    1
    65    25    64    1
    66    25    65    1
    67    25    66    1
    68    26    27    1
    69    26    67    1
    70    26    68    1
    71    27    29    1
    72    27    70    1
    73    27    71    1
    74    28    29    1
    75    28    72    1
    76    28    73    1
    77    29    32    1
    78    29    74    1
    79    30    78    1
    80    30    79    1
    81    30    80    1
    82    31    75    1
    83    31    76    1
    84    31    77    1
    85    32    81    1
    86    32    82    1
    87    32    83    1
