@<TRIPOS>MOLECULE
IMPHY009693
 199 209 0 0 0
SMALL
GASTEIGER

@<TRIPOS>ATOM
      1 O           4.6836    5.4136    0.0000 O.3     1  UNL1       -0.3450
      2 O           2.8522    4.7054    0.0000 O.3     1  UNL1       -0.3642
      3 O          11.1116    0.0591    0.0000 O.3     1  UNL1       -0.3454
      4 O          10.2456   -1.4409    0.0000 O.3     1  UNL1       -0.3405
      5 O           3.3168    9.2448    0.0000 O.3     1  UNL1       -0.3484
      6 O          12.8437   -0.9409    0.0000 O.3     1  UNL1       -0.3841
      7 O          12.8437   -2.9409    0.0000 O.3     1  UNL1       -0.3401
      8 O          11.1116   -3.9409    0.0000 O.3     1  UNL1       -0.3401
      9 O           8.5136   -2.4409    0.0000 O.3     1  UNL1       -0.3924
     10 O           4.8142   10.1153    0.0000 O.3     1  UNL1       -0.3405
     11 O          13.7097   -1.4409    0.0000 O.3     1  UNL1       -0.3461
     12 O           9.3796   -3.9409    0.0000 O.3     1  UNL1       -0.3405
     13 O           2.3116   10.9739    0.0000 O.3     1  UNL1       -0.3841
     14 O          14.5758   -3.9409    0.0000 O.3     1  UNL1       -0.3841
     15 O          11.1116   -5.9409    0.0000 O.3     1  UNL1       -0.3378
     16 O           3.3064   12.7089    0.0000 O.3     1  UNL1       -0.3864
     17 O           5.3064   12.7149    0.0000 O.3     1  UNL1       -0.3865
     18 O          16.3078   -2.9409    0.0000 O.3     1  UNL1       -0.3864
     19 O           9.3796   -6.9409    0.0000 O.3     1  UNL1       -0.3864
     20 O          16.3078   -0.9409    0.0000 O.3     1  UNL1       -0.3869
     21 O           7.6476   -5.9409    0.0000 O.3     1  UNL1       -0.3865
     22 O           6.8090   11.8533    0.0000 O.3     1  UNL1       -0.3924
     23 O          10.2456   -7.4409    0.0000 O.3     1  UNL1       -0.3405
     24 O           6.7815   -4.4409    0.0000 O.3     1  UNL1       -0.3924
     25 O          12.8437   -6.9409    0.0000 O.3     1  UNL1       -0.3841
     26 O          12.8437   -8.9409    0.0000 O.3     1  UNL1       -0.3401
     27 O          11.1116   -9.9409    0.0000 O.3     1  UNL1       -0.3865
     28 O           9.3796   -9.9409    0.0000 O.3     1  UNL1       -0.3924
     29 O          11.9777  -10.4409    0.0000 O.3     1  UNL1       -0.3405
     30 O          14.5758   -9.9409    0.0000 O.3     1  UNL1       -0.3841
     31 O          14.5758  -11.9409    0.0000 O.3     1  UNL1       -0.3864
     32 O          12.8437  -12.9409    0.0000 O.3     1  UNL1       -0.3865
     33 O          10.2456  -11.4409    0.0000 O.3     1  UNL1       -0.3924
     34 C           5.7596    3.1829    0.0000 C.3     1  UNL1       -0.0233
     35 C           6.6237    3.6862    0.0000 C.3     1  UNL1       -0.0298
     36 C           7.4917    3.1896    0.0000 C.3     1  UNL1       -0.0343
     37 C           5.0200    3.8471    0.0000 C.3     1  UNL1       -0.0015
     38 C           7.4955    2.1896    0.0000 C.3     1  UNL1       -0.0323
     39 C           8.3915    1.6584    0.0000 C.3     1  UNL1       -0.0260
     40 C           5.4217    4.7565    0.0000 C.3     1  UNL1        0.0660
     41 C           6.4108    4.6572    0.0000 C.3     1  UNL1       -0.0226
     42 C           5.7635    2.1829    0.0000 C.3     1  UNL1       -0.0467
     43 C           6.6314    1.6862    0.0000 C.3     1  UNL1       -0.0489
     44 C           9.2956    2.1757    0.0000 C.3     1  UNL1       -0.0330
     45 C           4.0372    3.9500    0.0000 C.3     1  UNL1        0.0158
     46 C           8.3835    3.7277    0.0000 C.3     1  UNL1       -0.0494
     47 C           9.2916    3.2173    0.0000 C.3     1  UNL1       -0.0494
     48 C           4.8955    2.6796    0.0000 C.3     1  UNL1       -0.0590
     49 C           3.8297    4.9162    0.0000 C.3     1  UNL1        0.1704
     50 C           8.3706    0.5736    0.0000 C.3     1  UNL1       -0.0448
     51 C          10.2414    1.6441    0.0000 C.3     1  UNL1       -0.0232
     52 C           7.5236    1.1617    0.0000 C.3     1  UNL1       -0.0590
     53 C           9.3039    0.0202    0.0000 C.3     1  UNL1       -0.0260
     54 C          10.2456    0.5591    0.0000 C.3     1  UNL1        0.0621
     55 C           3.3690    3.2060    0.0000 C.3     1  UNL1       -0.0572
     56 C           3.3271    5.7807    0.0000 C.3     1  UNL1        0.0018
     57 C           3.8245    6.6482    0.0000 C.3     1  UNL1       -0.0435
     58 C           3.3220    7.5128    0.0000 C.3     1  UNL1       -0.0201
     59 C          11.1116   -0.9409    0.0000 C.3     1  UNL1        0.1882
     60 C          11.9777   -1.4409    0.0000 C.3     1  UNL1        0.1345
     61 C           3.8194    8.3803    0.0000 C.3     1  UNL1        0.0533
     62 C           2.3220    7.5098    0.0000 C.3     1  UNL1       -0.0603
     63 C          11.9777   -2.4409    0.0000 C.3     1  UNL1        0.1209
     64 C          10.2456   -2.4409    0.0000 C.3     1  UNL1        0.1134
     65 C          11.1116   -2.9409    0.0000 C.3     1  UNL1        0.1188
     66 C           9.3796   -2.9409    0.0000 C.3     1  UNL1        0.0730
     67 C           3.8142   10.1123    0.0000 C.3     1  UNL1        0.1879
     68 C          13.7097   -2.4409    0.0000 C.3     1  UNL1        0.1880
     69 C           3.3116   10.9769    0.0000 C.3     1  UNL1        0.1341
     70 C          10.2456   -4.4409    0.0000 C.3     1  UNL1        0.1888
     71 C          14.5758   -2.9409    0.0000 C.3     1  UNL1        0.1341
     72 C           3.8090   11.8444    0.0000 C.3     1  UNL1        0.1141
     73 C          10.2456   -5.4409    0.0000 C.3     1  UNL1        0.1406
     74 C           5.3116   10.9828    0.0000 C.3     1  UNL1        0.1130
     75 C           4.8090   11.8474    0.0000 C.3     1  UNL1        0.1119
     76 C          15.4418   -2.4409    0.0000 C.3     1  UNL1        0.1137
     77 C           9.3796   -5.9409    0.0000 C.3     1  UNL1        0.1144
     78 C          14.5758   -0.9409    0.0000 C.3     1  UNL1        0.0792
     79 C          15.4418   -1.4409    0.0000 C.3     1  UNL1        0.1069
     80 C           8.5136   -4.4409    0.0000 C.3     1  UNL1        0.1130
     81 C           8.5136   -5.4409    0.0000 C.3     1  UNL1        0.1119
     82 C           6.3116   10.9858    0.0000 C.3     1  UNL1        0.0730
     83 C           7.6476   -3.9409    0.0000 C.3     1  UNL1        0.0730
     84 C          11.1116   -6.9409    0.0000 C.3     1  UNL1        0.1886
     85 C          11.9777   -7.4409    0.0000 C.3     1  UNL1        0.1345
     86 C          11.9777   -8.4409    0.0000 C.3     1  UNL1        0.1206
     87 C          10.2456   -8.4409    0.0000 C.3     1  UNL1        0.1130
     88 C          11.1116   -8.9409    0.0000 C.3     1  UNL1        0.1123
     89 C           9.3796   -8.9409    0.0000 C.3     1  UNL1        0.0730
     90 C          12.8437   -9.9409    0.0000 C.3     1  UNL1        0.1884
     91 C          13.7097  -10.4409    0.0000 C.3     1  UNL1        0.1341
     92 C          13.7097  -11.4409    0.0000 C.3     1  UNL1        0.1141
     93 C          11.9777  -11.4409    0.0000 C.3     1  UNL1        0.1130
     94 C          12.8437  -11.9409    0.0000 C.3     1  UNL1        0.1119
     95 C          11.1116  -11.9409    0.0000 C.3     1  UNL1        0.0730
     96 H           7.1234    4.0532    0.0000 H       1  UNL1        0.0310
     97 H           7.4845    3.8095    0.0000 H       1  UNL1        0.0306
     98 H           4.7683    3.2805    0.0000 H       1  UNL1        0.0335
     99 H           8.0336    2.4975    0.0000 H       1  UNL1        0.0309
    100 H           5.6709    5.3242    0.0000 H       1  UNL1        0.0600
    101 H           7.0270    4.7257    0.0000 H       1  UNL1        0.0293
    102 H           6.4075    5.2772    0.0000 H       1  UNL1        0.0293
    103 H           5.1525    2.2882    0.0000 H       1  UNL1        0.0271
    104 H           5.5537    1.5995    0.0000 H       1  UNL1        0.0271
    105 H           6.2347    1.2098    0.0000 H       1  UNL1        0.0268
    106 H           7.0318    1.2128    0.0000 H       1  UNL1        0.0268
    107 H           9.8301    2.4898    0.0000 H       1  UNL1        0.0307
    108 H           3.4381    4.1095    0.0000 H       1  UNL1        0.0354
    109 H           8.7753    4.2082    0.0000 H       1  UNL1        0.0268
    110 H           7.9771    4.1959    0.0000 H       1  UNL1        0.0268
    111 H           9.9028    3.1136    0.0000 H       1  UNL1        0.0268
    112 H           9.4984    3.8018    0.0000 H       1  UNL1        0.0268
    113 H           4.5835    3.2153    0.0000 H       1  UNL1        0.0235
    114 H           4.3598    2.3675    0.0000 H       1  UNL1        0.0235
    115 H           5.2076    2.1438    0.0000 H       1  UNL1        0.0235
    116 H           7.7619    0.6914    0.0000 H       1  UNL1        0.0271
    117 H           8.1503   -0.0060    0.0000 H       1  UNL1        0.0271
    118 H          10.8527    1.5404    0.0000 H       1  UNL1        0.0293
    119 H          10.4482    2.2286    0.0000 H       1  UNL1        0.0293
    120 H           7.2156    1.6998    0.0000 H       1  UNL1        0.0235
    121 H           6.9854    0.8538    0.0000 H       1  UNL1        0.0235
    122 H           7.8315    0.6236    0.0000 H       1  UNL1        0.0235
    123 H           8.9011   -0.4511    0.0000 H       1  UNL1        0.0290
    124 H           9.6994   -0.4573    0.0000 H       1  UNL1        0.0290
    125 H          10.7820    0.8702    0.0000 H       1  UNL1        0.0597
    126 H           2.9078    3.6203    0.0000 H       1  UNL1        0.0234
    127 H           2.9548    2.7448    0.0000 H       1  UNL1        0.0234
    128 H           3.8303    2.7918    0.0000 H       1  UNL1        0.0234
    129 H           2.8510    6.1778    0.0000 H       1  UNL1        0.0317
    130 H           2.8534    5.3808    0.0000 H       1  UNL1        0.0317
    131 H           2.4360    5.1649    0.0000 H       1  UNL1        0.2128
    132 H           4.3007    6.2511    0.0000 H       1  UNL1        0.0270
    133 H           4.2983    7.0482    0.0000 H       1  UNL1        0.0270
    134 H           3.0104    8.0488    0.0000 H       1  UNL1        0.0320
    135 H          10.5747   -0.6309    0.0000 H       1  UNL1        0.0937
    136 H          12.5146   -1.7509    0.0000 H       1  UNL1        0.0671
    137 H           4.2955    7.9832    0.0000 H       1  UNL1        0.0563
    138 H           4.2931    8.7802    0.0000 H       1  UNL1        0.0563
    139 H           2.3201    8.1298    0.0000 H       1  UNL1        0.0233
    140 H           1.7020    7.5079    0.0000 H       1  UNL1        0.0233
    141 H           2.3238    6.8898    0.0000 H       1  UNL1        0.0233
    142 H          11.9777   -3.0609    0.0000 H       1  UNL1        0.0651
    143 H           9.7087   -2.1309    0.0000 H       1  UNL1        0.0647
    144 H          10.5747   -3.2509    0.0000 H       1  UNL1        0.0651
    145 H          12.8437   -0.3209    0.0000 H       1  UNL1        0.2101
    146 H           8.9811   -3.4158    0.0000 H       1  UNL1        0.0584
    147 H           9.7781   -3.4158    0.0000 H       1  UNL1        0.0584
    148 H           3.1942   10.1105    0.0000 H       1  UNL1        0.0937
    149 H          13.7097   -3.0609    0.0000 H       1  UNL1        0.0937
    150 H           3.0000   11.5129    0.0000 H       1  UNL1        0.0671
    151 H          10.7826   -4.7509    0.0000 H       1  UNL1        0.0938
    152 H           7.9766   -2.7509    0.0000 H       1  UNL1        0.2095
    153 H          15.1127   -3.2509    0.0000 H       1  UNL1        0.0671
    154 H           4.1174   12.3822    0.0000 H       1  UNL1        0.0648
    155 H          10.2456   -6.0609    0.0000 H       1  UNL1        0.0675
    156 H           5.6232   10.4468    0.0000 H       1  UNL1        0.0647
    157 H           5.4290   11.8492    0.0000 H       1  UNL1        0.0647
    158 H          15.9787   -2.1309    0.0000 H       1  UNL1        0.0647
    159 H           8.8427   -6.2509    0.0000 H       1  UNL1        0.0648
    160 H           2.0000   11.5099    0.0000 H       1  UNL1        0.2101
    161 H          14.9743   -0.4659    0.0000 H       1  UNL1        0.0587
    162 H          14.1772   -0.4659    0.0000 H       1  UNL1        0.0587
    163 H          15.4418   -0.8209    0.0000 H       1  UNL1        0.0643
    164 H           8.5136   -3.8209    0.0000 H       1  UNL1        0.0647
    165 H           7.9766   -5.1309    0.0000 H       1  UNL1        0.0647
    166 H           6.2058   10.3749    0.0000 H       1  UNL1        0.0584
    167 H           6.8948   10.7755    0.0000 H       1  UNL1        0.0584
    168 H          15.1127   -4.2509    0.0000 H       1  UNL1        0.2101
    169 H           3.6148   13.2468    0.0000 H       1  UNL1        0.2100
    170 H           4.9948   13.2509    0.0000 H       1  UNL1        0.2100
    171 H           8.0461   -3.4659    0.0000 H       1  UNL1        0.0584
    172 H           7.2490   -3.4659    0.0000 H       1  UNL1        0.0584
    173 H          16.8447   -2.6309    0.0000 H       1  UNL1        0.2100
    174 H          10.5747   -6.6309    0.0000 H       1  UNL1        0.0938
    175 H           8.8427   -7.2509    0.0000 H       1  UNL1        0.2100
    176 H          16.3078   -0.3209    0.0000 H       1  UNL1        0.2100
    177 H           7.1106   -5.6309    0.0000 H       1  UNL1        0.2100
    178 H           7.4290   11.8552    0.0000 H       1  UNL1        0.2095
    179 H          12.5146   -7.7509    0.0000 H       1  UNL1        0.0671
    180 H           6.2446   -4.1309    0.0000 H       1  UNL1        0.2095
    181 H          11.9777   -9.0609    0.0000 H       1  UNL1        0.0651
    182 H           9.7087   -8.1309    0.0000 H       1  UNL1        0.0647
    183 H          10.5747   -9.2509    0.0000 H       1  UNL1        0.0647
    184 H          13.3806   -7.2509    0.0000 H       1  UNL1        0.2101
    185 H           9.1676   -8.3583    0.0000 H       1  UNL1        0.0584
    186 H           8.7690   -9.0486    0.0000 H       1  UNL1        0.0584
    187 H          10.5747  -10.2509    0.0000 H       1  UNL1        0.2100
    188 H          12.3068   -9.6309    0.0000 H       1  UNL1        0.0938
    189 H          14.2467  -10.7509    0.0000 H       1  UNL1        0.0671
    190 H           8.8427  -10.2509    0.0000 H       1  UNL1        0.2095
    191 H          14.2467  -11.1309    0.0000 H       1  UNL1        0.0648
    192 H          11.4407  -11.1309    0.0000 H       1  UNL1        0.0647
    193 H          13.3806  -12.2509    0.0000 H       1  UNL1        0.0647
    194 H          15.1127  -10.2509    0.0000 H       1  UNL1        0.2101
    195 H          10.7131  -12.4158    0.0000 H       1  UNL1        0.0584
    196 H          11.5102  -12.4158    0.0000 H       1  UNL1        0.0584
    197 H          14.5758  -12.5609    0.0000 H       1  UNL1        0.2100
    198 H          12.3068  -13.2509    0.0000 H       1  UNL1        0.2100
    199 H           9.7087  -11.7509    0.0000 H       1  UNL1        0.2095
@<TRIPOS>BOND
     1     1    40    1
     2     1    49    1
     3     2    49    1
     4     2   131    1
     5     3    54    1
     6     3    59    1
     7     4    59    1
     8     4    64    1
     9     5    61    1
    10     5    67    1
    11     6    60    1
    12     6   145    1
    13     7    63    1
    14     7    68    1
    15     8    65    1
    16     8    70    1
    17     9    66    1
    18     9   152    1
    19    10    67    1
    20    10    74    1
    21    11    68    1
    22    11    78    1
    23    12    70    1
    24    12    80    1
    25    13    69    1
    26    13   160    1
    27    14    71    1
    28    14   168    1
    29    15    73    1
    30    15    84    1
    31    16    72    1
    32    16   169    1
    33    17    75    1
    34    17   170    1
    35    18    76    1
    36    18   173    1
    37    19    77    1
    38    19   175    1
    39    20    79    1
    40    20   176    1
    41    21    81    1
    42    21   177    1
    43    22    82    1
    44    22   178    1
    45    23    84    1
    46    23    87    1
    47    24    83    1
    48    24   180    1
    49    25    85    1
    50    25   184    1
    51    26    86    1
    52    26    90    1
    53    27    88    1
    54    27   187    1
    55    28    89    1
    56    28   190    1
    57    29    90    1
    58    29    93    1
    59    30    91    1
    60    30   194    1
    61    31    92    1
    62    31   197    1
    63    32    94    1
    64    32   198    1
    65    33    95    1
    66    33   199    1
    67    34    35    1
    68    34    37    1
    69    34    42    1
    70    34    48    1
    71    35    36    1
    72    35    41    1
    73    35    96    1
    74    36    38    1
    75    36    46    1
    76    36    97    1
    77    37    40    1
    78    37    45    1
    79    37    98    1
    80    38    39    1
    81    38    43    1
    82    38    99    1
    83    39    44    1
    84    39    50    1
    85    39    52    1
    86    40    41    1
    87    40   100    1
    88    41   101    1
    89    41   102    1
    90    42    43    1
    91    42   103    1
    92    42   104    1
    93    43   105    1
    94    43   106    1
    95    44    47    1
    96    44    51    1
    97    44   107    1
    98    45    49    1
    99    45    55    1
   100    45   108    1
   101    46    47    1
   102    46   109    1
   103    46   110    1
   104    47   111    1
   105    47   112    1
   106    48   113    1
   107    48   114    1
   108    48   115    1
   109    49    56    1
   110    50    53    1
   111    50   116    1
   112    50   117    1
   113    51    54    1
   114    51   118    1
   115    51   119    1
   116    52   120    1
   117    52   121    1
   118    52   122    1
   119    53    54    1
   120    53   123    1
   121    53   124    1
   122    54   125    1
   123    55   126    1
   124    55   127    1
   125    55   128    1
   126    56    57    1
   127    56   129    1
   128    56   130    1
   129    57    58    1
   130    57   132    1
   131    57   133    1
   132    58    61    1
   133    58    62    1
   134    58   134    1
   135    59    60    1
   136    59   135    1
   137    60    63    1
   138    60   136    1
   139    61   137    1
   140    61   138    1
   141    62   139    1
   142    62   140    1
   143    62   141    1
   144    63    65    1
   145    63   142    1
   146    64    65    1
   147    64    66    1
   148    64   143    1
   149    65   144    1
   150    66   146    1
   151    66   147    1
   152    67    69    1
   153    67   148    1
   154    68    71    1
   155    68   149    1
   156    69    72    1
   157    69   150    1
   158    70    73    1
   159    70   151    1
   160    71    76    1
   161    71   153    1
   162    72    75    1
   163    72   154    1
   164    73    77    1
   165    73   155    1
   166    74    75    1
   167    74    82    1
   168    74   156    1
   169    75   157    1
   170    76    79    1
   171    76   158    1
   172    77    81    1
   173    77   159    1
   174    78    79    1
   175    78   161    1
   176    78   162    1
   177    79   163    1
   178    80    81    1
   179    80    83    1
   180    80   164    1
   181    81   165    1
   182    82   166    1
   183    82   167    1
   184    83   171    1
   185    83   172    1
   186    84    85    1
   187    84   174    1
   188    85    86    1
   189    85   179    1
   190    86    88    1
   191    86   181    1
   192    87    88    1
   193    87    89    1
   194    87   182    1
   195    88   183    1
   196    89   185    1
   197    89   186    1
   198    90    91    1
   199    90   188    1
   200    91    92    1
   201    91   189    1
   202    92    94    1
   203    92   191    1
   204    93    94    1
   205    93    95    1
   206    93   192    1
   207    94   193    1
   208    95   195    1
   209    95   196    1
