@<TRIPOS>MOLECULE
IMPHY005564
 38 39 0 0 0
SMALL
GASTEIGER

@<TRIPOS>ATOM
      1 O           3.9020   -2.0061    0.0000 O.3     1  UNL1       -0.3901
      2 O           4.2026   -0.0381    0.0000 O.3     1  UNL1       -0.4610
      3 O           4.5628    1.6561    0.0000 O.2     1  UNL1       -0.2453
      4 N           6.4408   -2.5061    0.0000 N.3     1  UNL1       -0.2965
      5 C           6.4408   -1.5061    0.0000 C.3     1  UNL1        0.0189
      6 C           5.4898   -1.1970    0.0000 C.3     1  UNL1        0.0360
      7 C           4.9020   -2.0061    0.0000 C.3     1  UNL1        0.0752
      8 C           7.3871   -1.2013    0.0000 C.3     1  UNL1       -0.0357
      9 C           5.4898   -2.8151    0.0000 C.3     1  UNL1        0.0257
     10 C           7.3871   -2.8108    0.0000 C.3     1  UNL1       -0.0007
     11 C           7.9707   -2.0061    0.0000 C.3     1  UNL1       -0.0388
     12 C           5.1808   -0.2460    0.0000 C.3     1  UNL1        0.0994
     13 C           3.8936    0.9130    0.0000 C.2     1  UNL1        0.3346
     14 C           2.9155    1.1209    0.0000 C.2     1  UNL1        0.0293
     15 C           2.2463    0.3777    0.0000 C.3     1  UNL1       -0.0333
     16 C           2.6064    2.0719    0.0000 C.2     1  UNL1       -0.0774
     17 C           3.2756    2.8151    0.0000 C.3     1  UNL1       -0.0461
     18 H           6.4420   -0.6561    0.0000 H       1  UNL1        0.0467
     19 H           4.8774   -1.1001    0.0000 H       1  UNL1        0.0374
     20 H           4.6205   -2.5585    0.0000 H       1  UNL1        0.0610
     21 H           7.9245   -0.8921    0.0000 H       1  UNL1        0.0281
     22 H           7.1360   -0.6344    0.0000 H       1  UNL1        0.0281
     23 H           4.9529   -3.1251    0.0000 H       1  UNL1        0.0452
     24 H           5.7420   -3.3815    0.0000 H       1  UNL1        0.0452
     25 H           7.1360   -3.3777    0.0000 H       1  UNL1        0.0427
     26 H           7.9245   -3.1200    0.0000 H       1  UNL1        0.0427
     27 H           8.4316   -2.4208    0.0000 H       1  UNL1        0.0278
     28 H           8.4316   -1.5913    0.0000 H       1  UNL1        0.0278
     29 H           5.7947   -0.1597    0.0000 H       1  UNL1        0.0702
     30 H           5.2024    0.3736    0.0000 H       1  UNL1        0.0702
     31 H           3.5920   -2.5430    0.0000 H       1  UNL1        0.2098
     32 H           1.7856    0.7926    0.0000 H       1  UNL1        0.0280
     33 H           1.8315   -0.0830    0.0000 H       1  UNL1        0.0280
     34 H           2.7071   -0.0371    0.0000 H       1  UNL1        0.0280
     35 H           2.0000    2.2008    0.0000 H       1  UNL1        0.0574
     36 H           3.7363    2.4002    0.0000 H       1  UNL1        0.0272
     37 H           3.6904    3.2758    0.0000 H       1  UNL1        0.0272
     38 H           2.8148    3.2300    0.0000 H       1  UNL1        0.0272
@<TRIPOS>BOND
     1     7     1    1
     2     1    31    1
     3     2    12    1
     4     2    13    1
     5     3    13    2
     6     4     5    1
     7     4     9    1
     8     4    10    1
     9     5     6    1
    10     5     8    1
    11     5    18    1
    12     6     7    1
    13     6    12    1
    14     6    19    1
    15     7     9    1
    16     7    20    1
    17     8    11    1
    18     8    21    1
    19     8    22    1
    20     9    23    1
    21     9    24    1
    22    10    11    1
    23    10    25    1
    24    10    26    1
    25    11    27    1
    26    11    28    1
    27    12    29    1
    28    12    30    1
    29    13    14    1
    30    14    15    1
    31    14    16    2
    32    15    32    1
    33    15    33    1
    34    15    34    1
    35    16    17    1
    36    16    35    1
    37    17    36    1
    38    17    37    1
    39    17    38    1
