@<TRIPOS>MOLECULE
IMPHY006230
 44 46 0 0 0
SMALL
GASTEIGER

@<TRIPOS>ATOM
      1 O           8.0901   -2.9397    0.0000 O.3     1  UNL1       -0.4823
      2 O           6.3301   -3.9050    0.0000 O.3     1  UNL1       -0.5033
      3 O           7.1962    0.5950    0.0000 O.2     1  UNL1       -0.2873
      4 O           2.0000    3.5950    0.0000 O.3     1  UNL1       -0.5068
      5 C           8.9962   -2.4258    0.0000 C.3     1  UNL1        0.1056
      6 C           8.9962   -1.3842    0.0000 C.3     1  UNL1       -0.0093
      7 C           8.0901   -0.8703    0.0000 C.3     1  UNL1       -0.0198
      8 C           7.1962   -1.4050    0.0000 C.ar    1  UNL1        0.0089
      9 C           7.1962   -2.4050    0.0000 C.ar    1  UNL1        0.1663
     10 C           9.9962   -2.4297    0.0000 C.3     1  UNL1       -0.0252
     11 C           9.4928   -3.2938    0.0000 C.3     1  UNL1       -0.0252
     12 C           6.3301   -0.9050    0.0000 C.ar    1  UNL1        0.0285
     13 C           6.3301   -2.9050    0.0000 C.ar    1  UNL1        0.1588
     14 C           5.4641   -1.4050    0.0000 C.ar    1  UNL1       -0.0470
     15 C           5.4641   -2.4050    0.0000 C.ar    1  UNL1       -0.0158
     16 C           6.3301    0.0950    0.0000 C.2     1  UNL1        0.1865
     17 C           5.4641    0.5950    0.0000 C.2     1  UNL1       -0.0138
     18 C           5.4641    1.5950    0.0000 C.2     1  UNL1       -0.0510
     19 C           4.5981    2.0950    0.0000 C.ar    1  UNL1       -0.0247
     20 C           4.5981    3.0950    0.0000 C.ar    1  UNL1       -0.0511
     21 C           3.7320    1.5950    0.0000 C.ar    1  UNL1       -0.0511
     22 C           3.7320    3.5950    0.0000 C.ar    1  UNL1       -0.0196
     23 C           2.8660    2.0950    0.0000 C.ar    1  UNL1       -0.0196
     24 C           2.8660    3.0950    0.0000 C.ar    1  UNL1        0.1169
     25 H           9.6070   -1.4903    0.0000 H       1  UNL1        0.0307
     26 H           9.2052   -0.8005    0.0000 H       1  UNL1        0.0307
     27 H           8.4837   -0.3913    0.0000 H       1  UNL1        0.0316
     28 H           7.6855   -0.4006    0.0000 H       1  UNL1        0.0316
     29 H           9.9938   -3.0497    0.0000 H       1  UNL1        0.0268
     30 H           8.9547   -3.6017    0.0000 H       1  UNL1        0.0268
     31 H           9.8008   -3.8319    0.0000 H       1  UNL1        0.0268
     32 H          10.0309   -2.9858    0.0000 H       1  UNL1        0.0268
     33 H          10.6161   -2.4321    0.0000 H       1  UNL1        0.0268
     34 H           9.9985   -1.8097    0.0000 H       1  UNL1        0.0268
     35 H           4.9272   -1.0950    0.0000 H       1  UNL1        0.0626
     36 H           4.9272   -2.7150    0.0000 H       1  UNL1        0.0655
     37 H           5.7932   -4.2150    0.0000 H       1  UNL1        0.2923
     38 H           4.9272    0.2850    0.0000 H       1  UNL1        0.0656
     39 H           6.0010    1.9050    0.0000 H       1  UNL1        0.0625
     40 H           5.1350    3.4050    0.0000 H       1  UNL1        0.0625
     41 H           3.7320    0.9750    0.0000 H       1  UNL1        0.0625
     42 H           3.7320    4.2150    0.0000 H       1  UNL1        0.0654
     43 H           2.3291    1.7850    0.0000 H       1  UNL1        0.0654
     44 H           2.0000    4.2150    0.0000 H       1  UNL1        0.2921
@<TRIPOS>BOND
     1     1     5    1
     2     1     9    1
     3     2    13    1
     4     2    37    1
     5     3    16    2
     6     4    24    1
     7     4    44    1
     8     5     6    1
     9     5    10    1
    10     5    11    1
    11     6     7    1
    12     6    25    1
    13     6    26    1
    14     7     8    1
    15     7    27    1
    16     7    28    1
    17     8     9   ar
    18     8    12   ar
    19     9    13   ar
    20    10    29    1
    21    10    33    1
    22    10    34    1
    23    11    30    1
    24    11    31    1
    25    11    32    1
    26    12    14   ar
    27    12    16    1
    28    13    15   ar
    29    14    15   ar
    30    14    35    1
    31    15    36    1
    32    16    17    1
    33    17    18    2
    34    17    38    1
    35    18    19    1
    36    18    39    1
    37    19    20   ar
    38    19    21   ar
    39    20    22   ar
    40    20    40    1
    41    21    23   ar
    42    21    41    1
    43    22    24   ar
    44    22    42    1
    45    23    24   ar
    46    23    43    1
