@<TRIPOS>MOLECULE
IMPHY016748
 17 16 0 0 0
SMALL
GASTEIGER

@<TRIPOS>ATOM
      1 O           2.8660    0.2500    0.0000 O.3     1  UNL1       -0.4677
      2 O           3.7320   -1.2500    0.0000 O.2     1  UNL1       -0.2506
      3 C           4.5981    0.2500    0.0000 C.3     1  UNL1        0.0508
      4 C           5.4641   -0.2500    0.0000 C.3     1  UNL1       -0.0525
      5 C           4.5981    1.2500    0.0000 C.3     1  UNL1       -0.0525
      6 C           3.7320   -0.2500    0.0000 C.2     1  UNL1        0.3094
      7 C           2.0000   -0.2500    0.0000 C.3     1  UNL1        0.0817
      8 H           4.5981   -0.3700    0.0000 H       1  UNL1        0.0408
      9 H           5.1541   -0.7869    0.0000 H       1  UNL1        0.0237
     10 H           6.0010   -0.5600    0.0000 H       1  UNL1        0.0237
     11 H           5.7741    0.2869    0.0000 H       1  UNL1        0.0237
     12 H           5.2181    1.2500    0.0000 H       1  UNL1        0.0237
     13 H           4.5981    1.8700    0.0000 H       1  UNL1        0.0237
     14 H           3.9781    1.2500    0.0000 H       1  UNL1        0.0237
     15 H           1.6900    0.2869    0.0000 H       1  UNL1        0.0661
     16 H           1.4631   -0.5600    0.0000 H       1  UNL1        0.0661
     17 H           2.3100   -0.7869    0.0000 H       1  UNL1        0.0661
@<TRIPOS>BOND
     1     1     6    1
     2     1     7    1
     3     2     6    2
     4     3     4    1
     5     3     5    1
     6     3     6    1
     7     3     8    1
     8     4     9    1
     9     4    10    1
    10     4    11    1
    11     5    12    1
    12     5    13    1
    13     5    14    1
    14     7    15    1
    15     7    16    1
    16     7    17    1
