@<TRIPOS>MOLECULE
IMPHY013330
 34 34 0 0 0
SMALL
GASTEIGER

@<TRIPOS>ATOM
      1 O           4.5981   -1.2500    0.0000 O.3     1  UNL1       -0.3450
      2 O           4.5981    1.7500    0.0000 O.3     1  UNL1       -0.3733
      3 O           2.8660    0.7500    0.0000 O.3     1  UNL1       -0.3720
      4 O           6.3301    0.7500    0.0000 O.3     1  UNL1       -0.4565
      5 O           2.8660   -1.2500    0.0000 O.3     1  UNL1       -0.3520
      6 O           7.1962   -0.7500    0.0000 O.2     1  UNL1       -0.2512
      7 C           4.5981    0.7500    0.0000 C.3     1  UNL1        0.1280
      8 C           3.7320    0.2500    0.0000 C.3     1  UNL1        0.1384
      9 C           5.4641    0.2500    0.0000 C.3     1  UNL1        0.1548
     10 C           3.7320   -0.7500    0.0000 C.3     1  UNL1        0.1875
     11 C           5.4641   -0.7500    0.0000 C.3     1  UNL1        0.0903
     12 C           3.7320    2.2500    0.0000 C.3     1  UNL1        0.0371
     13 C           2.0000    0.2500    0.0000 C.3     1  UNL1        0.0371
     14 C           7.1962    0.2500    0.0000 C.2     1  UNL1        0.3044
     15 C           2.8660   -2.2500    0.0000 C.3     1  UNL1        0.0395
     16 C           8.0622    0.7500    0.0000 C.3     1  UNL1        0.0332
     17 H           5.1350    1.0600    0.0000 H       1  UNL1        0.0661
     18 H           3.7320    0.8700    0.0000 H       1  UNL1        0.0674
     19 H           6.0010   -0.0600    0.0000 H       1  UNL1        0.0784
     20 H           3.7320   -1.3700    0.0000 H       1  UNL1        0.0937
     21 H           5.6762   -1.3326    0.0000 H       1  UNL1        0.0599
     22 H           6.0747   -0.6423    0.0000 H       1  UNL1        0.0599
     23 H           4.0420    2.7869    0.0000 H       1  UNL1        0.0524
     24 H           3.1951    2.5600    0.0000 H       1  UNL1        0.0524
     25 H           3.4220    1.7131    0.0000 H       1  UNL1        0.0524
     26 H           1.6900    0.7869    0.0000 H       1  UNL1        0.0524
     27 H           1.4631   -0.0600    0.0000 H       1  UNL1        0.0524
     28 H           2.3100   -0.2869    0.0000 H       1  UNL1        0.0524
     29 H           2.2460   -2.2500    0.0000 H       1  UNL1        0.0525
     30 H           2.8660   -2.8700    0.0000 H       1  UNL1        0.0525
     31 H           3.4860   -2.2500    0.0000 H       1  UNL1        0.0525
     32 H           8.3722    0.2131    0.0000 H       1  UNL1        0.0342
     33 H           8.5991    1.0600    0.0000 H       1  UNL1        0.0342
     34 H           7.7522    1.2869    0.0000 H       1  UNL1        0.0342
@<TRIPOS>BOND
     1     1    10    1
     2     1    11    1
     3     7     2    1
     4     2    12    1
     5     8     3    1
     6     3    13    1
     7     9     4    1
     8     4    14    1
     9    10     5    1
    10     5    15    1
    11     6    14    2
    12     7     8    1
    13     7     9    1
    14     7    17    1
    15     8    10    1
    16     8    18    1
    17     9    11    1
    18     9    19    1
    19    10    20    1
    20    11    21    1
    21    11    22    1
    22    12    23    1
    23    12    24    1
    24    12    25    1
    25    13    26    1
    26    13    27    1
    27    13    28    1
    28    14    16    1
    29    15    29    1
    30    15    30    1
    31    15    31    1
    32    16    32    1
    33    16    33    1
    34    16    34    1
