@<TRIPOS>MOLECULE
IMPHY006062
 16 16 0 0 0
SMALL
GASTEIGER

@<TRIPOS>ATOM
      1 O           2.0000   -1.7500    0.0000 O.3     1  UNL1       -0.5067
      2 O           4.5981    1.7500    0.0000 O.3     1  UNL1       -0.4771
      3 O           2.8660    1.7500    0.0000 O.2     1  UNL1       -0.2451
      4 C           3.7320    0.2500    0.0000 C.ar    1  UNL1        0.0623
      5 C           2.8660   -0.2500    0.0000 C.ar    1  UNL1       -0.0062
      6 C           4.5981   -0.2500    0.0000 C.ar    1  UNL1       -0.0475
      7 C           2.8660   -1.2500    0.0000 C.ar    1  UNL1        0.1176
      8 C           4.5981   -1.2500    0.0000 C.ar    1  UNL1       -0.0575
      9 C           3.7320   -1.7500    0.0000 C.ar    1  UNL1       -0.0201
     10 C           3.7320    1.2500    0.0000 C.2     1  UNL1        0.3369
     11 H           2.3291    0.0600    0.0000 H       1  UNL1        0.0662
     12 H           5.1350    0.0600    0.0000 H       1  UNL1        0.0626
     13 H           5.1350   -1.5600    0.0000 H       1  UNL1        0.0619
     14 H           3.7320   -2.3700    0.0000 H       1  UNL1        0.0654
     15 H           2.0000   -2.3700    0.0000 H       1  UNL1        0.2921
     16 H           4.5981    2.3700    0.0000 H       1  UNL1        0.2954
@<TRIPOS>BOND
     1     1     7    1
     2     1    15    1
     3     2    10    1
     4     2    16    1
     5     3    10    2
     6     4     5   ar
     7     4     6   ar
     8     4    10    1
     9     5     7   ar
    10     5    11    1
    11     6     8   ar
    12     6    12    1
    13     7     9   ar
    14     8     9   ar
    15     8    13    1
    16     9    14    1
