@<TRIPOS>MOLECULE
IMPHY006672
 24 24 0 0 0
SMALL
GASTEIGER

@<TRIPOS>ATOM
      1 O           4.5981    1.9050    0.0000 O.3     1  UNL1       -0.4914
      2 O           2.8660    0.9050    0.0000 O.3     1  UNL1       -0.4915
      3 O           6.3301   -2.0950    0.0000 O.3     1  UNL1       -0.3904
      4 C           5.4641   -0.5950    0.0000 C.ar    1  UNL1       -0.0185
      5 C           4.5981    0.9050    0.0000 C.ar    1  UNL1        0.1618
      6 C           5.4641    0.4050    0.0000 C.ar    1  UNL1       -0.0109
      7 C           3.7320    0.4050    0.0000 C.ar    1  UNL1        0.1615
      8 C           4.5981   -1.0950    0.0000 C.ar    1  UNL1       -0.0527
      9 C           3.7320   -0.5950    0.0000 C.ar    1  UNL1       -0.0160
     10 C           6.3301   -1.0950    0.0000 C.3     1  UNL1        0.0693
     11 C           5.4641    2.4050    0.0000 C.3     1  UNL1        0.0790
     12 C           2.0000    0.4050    0.0000 C.3     1  UNL1        0.0790
     13 H           6.0010    0.7150    0.0000 H       1  UNL1        0.0659
     14 H           4.5981   -1.7150    0.0000 H       1  UNL1        0.0622
     15 H           3.1951   -0.9050    0.0000 H       1  UNL1        0.0655
     16 H           6.9407   -1.2027    0.0000 H       1  UNL1        0.0607
     17 H           6.5422   -0.5124    0.0000 H       1  UNL1        0.0607
     18 H           5.7741    1.8681    0.0000 H       1  UNL1        0.0660
     19 H           6.0010    2.7150    0.0000 H       1  UNL1        0.0660
     20 H           5.1541    2.9419    0.0000 H       1  UNL1        0.0660
     21 H           1.6900    0.9419    0.0000 H       1  UNL1        0.0660
     22 H           1.4631    0.0950    0.0000 H       1  UNL1        0.0660
     23 H           2.3100   -0.1319    0.0000 H       1  UNL1        0.0660
     24 H           6.8671   -2.4050    0.0000 H       1  UNL1        0.2098
@<TRIPOS>BOND
     1     1     5    1
     2     1    11    1
     3     2     7    1
     4     2    12    1
     5     3    10    1
     6     3    24    1
     7     4     6   ar
     8     4     8   ar
     9     4    10    1
    10     5     6   ar
    11     5     7   ar
    12     6    13    1
    13     7     9   ar
    14     8     9   ar
    15     8    14    1
    16     9    15    1
    17    10    16    1
    18    10    17    1
    19    11    18    1
    20    11    19    1
    21    11    20    1
    22    12    21    1
    23    12    22    1
    24    12    23    1
