@<TRIPOS>MOLECULE
IMPHY000242
 34 35 0 0 0
SMALL
GASTEIGER

@<TRIPOS>ATOM
      1 O           6.3580   -0.2847    0.0000 O.2     1  UNL1       -0.4213
      2 O           4.5981    2.7500    0.0000 O.3     1  UNL1       -0.4943
      3 O           2.8660   -0.2500    0.0000 O.3     1  UNL1       -0.4943
      4 O           8.1282   -0.2742    0.0000 O.2     1  UNL1       -0.2452
      5 O           4.5981   -3.2500    0.0000 O.2     1  UNL1       -0.2930
      6 C           5.4641    1.2500    0.0000 C.ar    1  UNL1        0.0600
      7 C           5.4641    0.2500    0.0000 C.ar    1  UNL1        0.1532
      8 C           4.5981   -0.2500    0.0000 C.ar    1  UNL1        0.0599
      9 C           4.5981    1.7500    0.0000 C.ar    1  UNL1        0.1342
     10 C           3.7320    0.2500    0.0000 C.ar    1  UNL1        0.1342
     11 C           3.7320    1.2500    0.0000 C.ar    1  UNL1        0.0232
     12 C           6.3580    1.7847    0.0000 C.ar    1  UNL1       -0.0408
     13 C           4.5981   -1.2500    0.0000 C.2     1  UNL1       -0.0443
     14 C           7.2641    1.2708    0.0000 C.ar    1  UNL1        0.0237
     15 C           7.2641    0.2292    0.0000 C.ar    1  UNL1        0.3372
     16 C           3.7320   -1.7500    0.0000 C.2     1  UNL1       -0.0187
     17 C           3.7320    3.2500    0.0000 C.3     1  UNL1        0.0788
     18 C           2.0000    0.2500    0.0000 C.3     1  UNL1        0.0788
     19 C           3.7320   -2.7500    0.0000 C.2     1  UNL1        0.1531
     20 C           2.8660   -3.2500    0.0000 C.3     1  UNL1       -0.0020
     21 H           3.1951    1.5600    0.0000 H       1  UNL1        0.0691
     22 H           6.3509    2.4046    0.0000 H       1  UNL1        0.0628
     23 H           5.1350   -1.5600    0.0000 H       1  UNL1        0.0627
     24 H           7.7998    1.5829    0.0000 H       1  UNL1        0.0689
     25 H           3.1951   -1.4400    0.0000 H       1  UNL1        0.0652
     26 H           4.0420    3.7869    0.0000 H       1  UNL1        0.0660
     27 H           3.1951    3.5600    0.0000 H       1  UNL1        0.0660
     28 H           3.4220    2.7131    0.0000 H       1  UNL1        0.0660
     29 H           2.3100    0.7869    0.0000 H       1  UNL1        0.0660
     30 H           1.4631    0.5600    0.0000 H       1  UNL1        0.0660
     31 H           1.6900   -0.2869    0.0000 H       1  UNL1        0.0660
     32 H           2.5560   -2.7131    0.0000 H       1  UNL1        0.0309
     33 H           2.3291   -3.5600    0.0000 H       1  UNL1        0.0309
     34 H           3.1760   -3.7869    0.0000 H       1  UNL1        0.0309
@<TRIPOS>BOND
     1     1     7   ar
     2     1    15   ar
     3     2     9    1
     4     2    17    1
     5     3    10    1
     6     3    18    1
     7     4    15    2
     8     5    19    2
     9     6     7   ar
    10     6     9   ar
    11     6    12   ar
    12     7     8   ar
    13     8    10   ar
    14     8    13    1
    15     9    11   ar
    16    10    11   ar
    17    11    21    1
    18    12    14   ar
    19    12    22    1
    20    13    16    2
    21    13    23    1
    22    14    15   ar
    23    14    24    1
    24    16    19    1
    25    16    25    1
    26    17    26    1
    27    17    27    1
    28    17    28    1
    29    18    29    1
    30    18    30    1
    31    18    31    1
    32    19    20    1
    33    20    32    1
    34    20    33    1
    35    20    34    1
