@<TRIPOS>MOLECULE
IMPHY014062
 68 71 0 0 0
SMALL
GASTEIGER

@<TRIPOS>ATOM
      1 O           5.1350   -1.6796    0.0000 O.3     1  UNL1       -0.3313
      2 O           6.8671   -1.6796    0.0000 O.3     1  UNL1       -0.4603
      3 O           5.1350   -4.6796    0.0000 O.3     1  UNL1       -0.3864
      4 O           3.4030   -3.6796    0.0000 O.3     1  UNL1       -0.3865
      5 O           6.8671   -3.6796    0.0000 O.3     1  UNL1       -0.3829
      6 O           2.5369   -2.1796    0.0000 O.3     1  UNL1       -0.3924
      7 O           8.6230    1.3829    0.0000 O.2     1  UNL1       -0.4504
      8 O          10.3844   -2.6352    0.0000 O.3     1  UNL1       -0.3891
      9 O           5.1208    1.3996    0.0000 O.3     1  UNL1       -0.5058
     10 O           6.0308    2.8930    0.0000 O.2     1  UNL1       -0.2830
     11 O           7.7666    3.8863    0.0000 O.3     1  UNL1       -0.5007
     12 O          12.0987    4.3696    0.0000 O.3     1  UNL1       -0.5068
     13 C           5.1350   -3.6796    0.0000 C.3     1  UNL1        0.1152
     14 C           4.2690   -3.1796    0.0000 C.3     1  UNL1        0.1120
     15 C           6.0010   -3.1796    0.0000 C.3     1  UNL1        0.1454
     16 C           4.2690   -2.1796    0.0000 C.3     1  UNL1        0.1140
     17 C           6.0010   -2.1796    0.0000 C.3     1  UNL1        0.2308
     18 C           3.4030   -1.6796    0.0000 C.3     1  UNL1        0.0731
     19 C           7.7671   -0.1553    0.0000 C.ar    1  UNL1        0.0376
     20 C           6.8671   -0.6796    0.0000 C.ar    1  UNL1        0.1342
     21 C           8.6370   -0.6486    0.0000 C.3     1  UNL1       -0.0181
     22 C           8.6447   -1.6486    0.0000 C.3     1  UNL1       -0.0203
     23 C           9.5145   -2.1419    0.0000 C.3     1  UNL1        0.0608
     24 C           7.7551    0.8863    0.0000 C.ar    1  UNL1        0.1497
     25 C           5.9670   -0.1553    0.0000 C.ar    1  UNL1        0.0229
     26 C           6.8910    1.3896    0.0000 C.ar    1  UNL1        0.1094
     27 C           5.9790    0.8863    0.0000 C.ar    1  UNL1        0.1348
     28 C           9.0212   -3.0117    0.0000 C.3     1  UNL1       -0.0363
     29 C          10.0079   -1.2720    0.0000 C.3     1  UNL1       -0.0363
     30 C           6.8948    2.3896    0.0000 C.ar    1  UNL1        0.2379
     31 C           8.6269    2.3829    0.0000 C.ar    1  UNL1        0.1806
     32 C           7.7628    2.8863    0.0000 C.ar    1  UNL1        0.2082
     33 C           9.4948    2.8796    0.0000 C.ar    1  UNL1        0.0213
     34 C           9.4987    3.8796    0.0000 C.ar    1  UNL1       -0.0475
     35 C          10.3589    2.3763    0.0000 C.ar    1  UNL1       -0.0475
     36 C          10.3666    4.3762    0.0000 C.ar    1  UNL1       -0.0195
     37 C          11.2269    2.8729    0.0000 C.ar    1  UNL1       -0.0195
     38 C          11.2307    3.8729    0.0000 C.ar    1  UNL1        0.1169
     39 H           4.5981   -3.9896    0.0000 H       1  UNL1        0.0648
     40 H           4.2690   -3.7996    0.0000 H       1  UNL1        0.0647
     41 H           6.0010   -3.7996    0.0000 H       1  UNL1        0.0683
     42 H           4.2690   -1.5596    0.0000 H       1  UNL1        0.0647
     43 H           6.5380   -2.4896    0.0000 H       1  UNL1        0.1084
     44 H           3.8015   -1.2046    0.0000 H       1  UNL1        0.0584
     45 H           3.0044   -1.2046    0.0000 H       1  UNL1        0.0584
     46 H           9.2484   -0.7515    0.0000 H       1  UNL1        0.0316
     47 H           8.8445   -0.0644    0.0000 H       1  UNL1        0.0316
     48 H           8.0333   -1.5456    0.0000 H       1  UNL1        0.0296
     49 H           8.4371   -2.2328    0.0000 H       1  UNL1        0.0296
     50 H           4.5981   -4.9896    0.0000 H       1  UNL1        0.2100
     51 H           3.4030   -4.2996    0.0000 H       1  UNL1        0.2100
     52 H           6.8671   -4.2996    0.0000 H       1  UNL1        0.2102
     53 H           5.4277   -0.4611    0.0000 H       1  UNL1        0.0691
     54 H           8.4819   -2.7059    0.0000 H       1  UNL1        0.0257
     55 H           8.7154   -3.5510    0.0000 H       1  UNL1        0.0257
     56 H           9.5605   -3.3176    0.0000 H       1  UNL1        0.0257
     57 H          10.5472   -1.5779    0.0000 H       1  UNL1        0.0257
     58 H          10.3137   -0.7327    0.0000 H       1  UNL1        0.0257
     59 H           9.4685   -0.9662    0.0000 H       1  UNL1        0.0257
     60 H           2.0000   -1.8696    0.0000 H       1  UNL1        0.2095
     61 H          10.3892   -3.2552    0.0000 H       1  UNL1        0.2101
     62 H           4.5792    1.0979    0.0000 H       1  UNL1        0.2922
     63 H           8.9630    4.1916    0.0000 H       1  UNL1        0.0626
     64 H          10.3565    1.7563    0.0000 H       1  UNL1        0.0626
     65 H           7.2309    4.1983    0.0000 H       1  UNL1        0.2924
     66 H          10.3690    4.9962    0.0000 H       1  UNL1        0.0654
     67 H          11.7626    2.5608    0.0000 H       1  UNL1        0.0654
     68 H          12.1011    4.9896    0.0000 H       1  UNL1        0.2921
@<TRIPOS>BOND
     1     1    16    1
     2     1    17    1
     3    17     2    1
     4     2    20    1
     5    13     3    1
     6     3    50    1
     7    14     4    1
     8     4    51    1
     9    15     5    1
    10     5    52    1
    11     6    18    1
    12     6    60    1
    13     7    24   ar
    14     7    31   ar
    15     8    23    1
    16     8    61    1
    17     9    27    1
    18     9    62    1
    19    10    30    2
    20    11    32    1
    21    11    65    1
    22    12    38    1
    23    12    68    1
    24    13    14    1
    25    13    15    1
    26    13    39    1
    27    14    16    1
    28    14    40    1
    29    15    17    1
    30    15    41    1
    31    16    18    1
    32    16    42    1
    33    17    43    1
    34    18    44    1
    35    18    45    1
    36    19    20   ar
    37    19    21    1
    38    19    24   ar
    39    20    25   ar
    40    21    22    1
    41    21    46    1
    42    21    47    1
    43    22    23    1
    44    22    48    1
    45    22    49    1
    46    23    28    1
    47    23    29    1
    48    24    26   ar
    49    25    27   ar
    50    25    53    1
    51    26    27   ar
    52    26    30   ar
    53    28    54    1
    54    28    55    1
    55    28    56    1
    56    29    57    1
    57    29    58    1
    58    29    59    1
    59    30    32   ar
    60    31    32   ar
    61    31    33    1
    62    33    34   ar
    63    33    35   ar
    64    34    36   ar
    65    34    63    1
    66    35    37   ar
    67    35    64    1
    68    36    38   ar
    69    36    66    1
    70    37    38   ar
    71    37    67    1
