@<TRIPOS>MOLECULE
IMPHY016822
 27 28 0 0 0
SMALL
GASTEIGER

@<TRIPOS>ATOM
      1 O           3.2369    2.3233    0.0000 O.2     1  UNL1       -0.3007
      2 C           3.7147   -1.3573    0.0000 C.3     1  UNL1       -0.0171
      3 C           5.1137   -1.3485    0.0000 C.3     1  UNL1       -0.0254
      4 C           3.9735   -0.3914    0.0000 C.3     1  UNL1       -0.0256
      5 C           3.2369    0.5912    0.0000 C.3     1  UNL1        0.0237
      6 C           2.3420   -1.9494    0.0000 C.3     1  UNL1       -0.0462
      7 C           2.0000   -1.0097    0.0000 C.3     1  UNL1       -0.0485
      8 C           3.4559   -2.3233    0.0000 C.3     1  UNL1       -0.0584
      9 C           5.9797   -0.8485    0.0000 C.3     1  UNL1       -0.0590
     10 C           5.6137   -2.2145    0.0000 C.3     1  UNL1       -0.0590
     11 C           2.7369    1.4572    0.0000 C.2     1  UNL1        0.1242
     12 H           4.4239    0.0348    0.0000 H       1  UNL1        0.0313
     13 H           3.7544    0.9328    0.0000 H       1  UNL1        0.0383
     14 H           1.7636   -2.1726    0.0000 H       1  UNL1        0.0271
     15 H           2.5765   -2.5233    0.0000 H       1  UNL1        0.0271
     16 H           1.8057   -0.4209    0.0000 H       1  UNL1        0.0268
     17 H           1.4142   -1.2129    0.0000 H       1  UNL1        0.0268
     18 H           2.8570   -2.1628    0.0000 H       1  UNL1        0.0235
     19 H           3.2954   -2.9221    0.0000 H       1  UNL1        0.0235
     20 H           4.0548   -2.4837    0.0000 H       1  UNL1        0.0235
     21 H           6.2897   -1.3854    0.0000 H       1  UNL1        0.0235
     22 H           6.5166   -0.5385    0.0000 H       1  UNL1        0.0235
     23 H           5.6697   -0.3116    0.0000 H       1  UNL1        0.0235
     24 H           5.0767   -2.5245    0.0000 H       1  UNL1        0.0235
     25 H           5.9237   -2.7515    0.0000 H       1  UNL1        0.0235
     26 H           6.1506   -1.9045    0.0000 H       1  UNL1        0.0235
     27 H           2.1169    1.4572    0.0000 H       1  UNL1        0.1029
@<TRIPOS>BOND
     1     1    11    2
     2     2     3    1
     3     2     5    1
     4     2     6    1
     5     2     8    1
     6     3     4    1
     7     3     9    1
     8     3    10    1
     9     4     5    1
    10     4     7    1
    11     4    12    1
    12     5    11    1
    13     5    13    1
    14     6     7    1
    15     6    14    1
    16     6    15    1
    17     7    16    1
    18     7    17    1
    19     8    18    1
    20     8    19    1
    21     8    20    1
    22     9    21    1
    23     9    22    1
    24     9    23    1
    25    10    24    1
    26    10    25    1
    27    10    26    1
    28    11    27    1
