@<TRIPOS>MOLECULE
IMPHY013270
 83 89 0 0 0
SMALL
GASTEIGER

@<TRIPOS>ATOM
      1 O           9.5801   -0.8267    0.0000 O.3     1  UNL1       -0.4797
      2 O           6.7942   -3.6111    0.0000 O.3     1  UNL1       -0.4811
      3 O           5.8505   -1.1393    0.0000 O.3     1  UNL1       -0.3868
      4 O          11.3503    1.2321    0.0000 O.3     1  UNL1       -0.4534
      5 O           5.9693   -0.1183    0.0000 O.3     1  UNL1       -0.5062
      6 O           7.8201    2.2080    0.0000 O.3     1  UNL1       -0.5063
      7 O           9.9024   -1.6495    0.0000 O.3     1  UNL1       -0.5062
      8 O          10.1030   -4.8412    0.0000 O.3     1  UNL1       -0.5065
      9 O           3.4977   -5.0718    0.0000 O.3     1  UNL1       -0.5033
     10 O          12.2066   -3.3195    0.0000 O.3     1  UNL1       -0.5033
     11 O           2.2120   -3.5396    0.0000 O.3     1  UNL1       -0.5033
     12 O          10.4785    2.7288    0.0000 O.2     1  UNL1       -0.2449
     13 O          13.9425   -2.3262    0.0000 O.3     1  UNL1       -0.5033
     14 O          13.0669    5.2388    0.0000 O.3     1  UNL1       -0.5032
     15 O          14.8105    2.2455    0.0000 O.3     1  UNL1       -0.5032
     16 O          14.8028    4.2455    0.0000 O.3     1  UNL1       -0.5009
     17 C           7.4782   -1.7317    0.0000 C.3     1  UNL1        0.0528
     18 C           6.4933   -1.9054    0.0000 C.3     1  UNL1        0.1074
     19 C           7.8201   -0.7920    0.0000 C.ar    1  UNL1        0.0463
     20 C           6.1513   -2.8451    0.0000 C.3     1  UNL1        0.1518
     21 C           8.1209   -2.4978    0.0000 C.ar    1  UNL1        0.0461
     22 C           8.6862   -0.2920    0.0000 C.ar    1  UNL1        0.1356
     23 C          10.4862    0.7288    0.0000 C.3     1  UNL1        0.1483
     24 C           8.6862    0.7080    0.0000 C.ar    1  UNL1        0.0398
     25 C          10.4862   -0.3128    0.0000 C.3     1  UNL1        0.1623
     26 C           9.5801    1.2426    0.0000 C.3     1  UNL1        0.0204
     27 C           7.7789   -3.4374    0.0000 C.ar    1  UNL1        0.1323
     28 C           6.9541   -0.2920    0.0000 C.ar    1  UNL1        0.1277
     29 C           5.1665   -3.0187    0.0000 C.ar    1  UNL1       -0.0012
     30 C           7.8201    1.2080    0.0000 C.ar    1  UNL1        0.1271
     31 C           9.1438   -2.3011    0.0000 C.ar    1  UNL1        0.1276
     32 C          11.3503   -0.8162    0.0000 C.ar    1  UNL1       -0.0001
     33 C           6.9541    0.7080    0.0000 C.ar    1  UNL1        0.0221
     34 C           8.4360   -4.2456    0.0000 C.ar    1  UNL1        0.0221
     35 C           9.8195   -3.0938    0.0000 C.ar    1  UNL1        0.0218
     36 C           9.4632   -4.0726    0.0000 C.ar    1  UNL1        0.1238
     37 C           4.8245   -3.9584    0.0000 C.ar    1  UNL1       -0.0098
     38 C           4.5237   -2.2526    0.0000 C.ar    1  UNL1       -0.0513
     39 C          11.3464   -1.8162    0.0000 C.ar    1  UNL1       -0.0097
     40 C          12.2182   -0.3195    0.0000 C.ar    1  UNL1       -0.0513
     41 C           3.8397   -4.1321    0.0000 C.ar    1  UNL1        0.1586
     42 C           3.5389   -2.4263    0.0000 C.ar    1  UNL1       -0.0162
     43 C          11.3464    2.2321    0.0000 C.2     1  UNL1        0.3398
     44 C          12.2105   -2.3195    0.0000 C.ar    1  UNL1        0.1586
     45 C           3.1969   -3.3660    0.0000 C.ar    1  UNL1        0.1582
     46 C          13.0823   -0.8228    0.0000 C.ar    1  UNL1       -0.0162
     47 C          13.0784   -1.8228    0.0000 C.ar    1  UNL1        0.1582
     48 C          12.2105    2.7355    0.0000 C.ar    1  UNL1        0.0661
     49 C          13.0784    2.2388    0.0000 C.ar    1  UNL1       -0.0023
     50 C          12.2066    3.7355    0.0000 C.ar    1  UNL1       -0.0023
     51 C          13.0707    4.2388    0.0000 C.ar    1  UNL1        0.1628
     52 C          13.9425    2.7421    0.0000 C.ar    1  UNL1        0.1628
     53 C          13.9387    3.7421    0.0000 C.ar    1  UNL1        0.2006
     54 H           6.9318   -1.0806    0.0000 H       1  UNL1        0.0429
     55 H           5.8827   -2.0130    0.0000 H       1  UNL1        0.0643
     56 H           5.9393   -3.4277    0.0000 H       1  UNL1        0.0811
     57 H          11.0237    0.4198    0.0000 H       1  UNL1        0.0778
     58 H          11.0237   -0.0039    0.0000 H       1  UNL1        0.0822
     59 H           9.9737    1.7217    0.0000 H       1  UNL1        0.0353
     60 H           9.1755    1.7124    0.0000 H       1  UNL1        0.0353
     61 H           6.4172    1.0180    0.0000 H       1  UNL1        0.0691
     62 H           5.2399   -1.2469    0.0000 H       1  UNL1        0.2100
     63 H           8.2173   -4.8257    0.0000 H       1  UNL1        0.0691
     64 H          10.4296   -2.9838    0.0000 H       1  UNL1        0.0691
     65 H           5.2230   -4.4334    0.0000 H       1  UNL1        0.0659
     66 H           4.7357   -1.6700    0.0000 H       1  UNL1        0.0623
     67 H          10.8083   -2.1241    0.0000 H       1  UNL1        0.0659
     68 H          12.2206    0.3005    0.0000 H       1  UNL1        0.0623
     69 H           5.7573    0.4643    0.0000 H       1  UNL1        0.2921
     70 H           7.2832    2.5180    0.0000 H       1  UNL1        0.2921
     71 H          10.4874   -1.8548    0.0000 H       1  UNL1        0.2921
     72 H           3.1403   -1.9513    0.0000 H       1  UNL1        0.0655
     73 H          13.6204   -0.5149    0.0000 H       1  UNL1        0.0655
     74 H           9.8887   -5.4229    0.0000 H       1  UNL1        0.2921
     75 H           3.8962   -5.5467    0.0000 H       1  UNL1        0.2923
     76 H          12.7424   -3.6316    0.0000 H       1  UNL1        0.2923
     77 H           2.0000   -4.1223    0.0000 H       1  UNL1        0.2923
     78 H          13.0808    1.6188    0.0000 H       1  UNL1        0.0663
     79 H          11.6685    4.0434    0.0000 H       1  UNL1        0.0663
     80 H          14.4807   -2.0182    0.0000 H       1  UNL1        0.2923
     81 H          12.5287    5.5467    0.0000 H       1  UNL1        0.2923
     82 H          15.3462    2.5576    0.0000 H       1  UNL1        0.2923
     83 H          14.8004    4.8655    0.0000 H       1  UNL1        0.2924
@<TRIPOS>BOND
     1     1    22    1
     2     1    25    1
     3     2    20    1
     4     2    27    1
     5    18     3    1
     6     3    62    1
     7    23     4    1
     8     4    43    1
     9     5    28    1
    10     5    69    1
    11     6    30    1
    12     6    70    1
    13     7    31    1
    14     7    71    1
    15     8    36    1
    16     8    74    1
    17     9    41    1
    18     9    75    1
    19    10    44    1
    20    10    76    1
    21    11    45    1
    22    11    77    1
    23    12    43    2
    24    13    47    1
    25    13    80    1
    26    14    51    1
    27    14    81    1
    28    15    52    1
    29    15    82    1
    30    16    53    1
    31    16    83    1
    32    17    18    1
    33    17    19    1
    34    17    21    1
    35    17    54    1
    36    18    20    1
    37    18    55    1
    38    19    22   ar
    39    19    28   ar
    40    20    29    1
    41    20    56    1
    42    21    27   ar
    43    21    31   ar
    44    22    24   ar
    45    23    25    1
    46    23    26    1
    47    23    57    1
    48    24    26    1
    49    24    30   ar
    50    25    32    1
    51    25    58    1
    52    26    59    1
    53    26    60    1
    54    27    34   ar
    55    28    33   ar
    56    29    37   ar
    57    29    38   ar
    58    30    33   ar
    59    31    35   ar
    60    32    39   ar
    61    32    40   ar
    62    33    61    1
    63    34    36   ar
    64    34    63    1
    65    35    36   ar
    66    35    64    1
    67    37    41   ar
    68    37    65    1
    69    38    42   ar
    70    38    66    1
    71    39    44   ar
    72    39    67    1
    73    40    46   ar
    74    40    68    1
    75    41    45   ar
    76    42    45   ar
    77    42    72    1
    78    43    48    1
    79    44    47   ar
    80    46    47   ar
    81    46    73    1
    82    48    49   ar
    83    48    50   ar
    84    49    52   ar
    85    49    78    1
    86    50    51   ar
    87    50    79    1
    88    51    53   ar
    89    52    53   ar
