@<TRIPOS>MOLECULE
IMPHY015909
 20 19 0 0 0
SMALL
GASTEIGER

@<TRIPOS>ATOM
      1 O           4.5981    0.7500    0.0000 O.3     1  UNL1       -0.4646
      2 O           3.7320   -0.7500    0.0000 O.2     1  UNL1       -0.2509
      3 C           6.3301    0.7500    0.0000 C.3     1  UNL1       -0.0214
      4 C           5.4641    0.2500    0.0000 C.3     1  UNL1        0.0922
      5 C           7.1962    0.2500    0.0000 C.3     1  UNL1       -0.0622
      6 C           2.8660    0.7500    0.0000 C.3     1  UNL1        0.0421
      7 C           3.7320    0.2500    0.0000 C.2     1  UNL1        0.3068
      8 C           2.0000    0.2500    0.0000 C.3     1  UNL1       -0.0552
      9 H           6.7287    1.2250    0.0000 H       1  UNL1        0.0295
     10 H           5.9316    1.2250    0.0000 H       1  UNL1        0.0295
     11 H           5.0656   -0.2249    0.0000 H       1  UNL1        0.0697
     12 H           5.8626   -0.2249    0.0000 H       1  UNL1        0.0697
     13 H           3.2646    1.2250    0.0000 H       1  UNL1        0.0375
     14 H           2.4675    1.2250    0.0000 H       1  UNL1        0.0375
     15 H           6.8862   -0.2869    0.0000 H       1  UNL1        0.0231
     16 H           7.7331   -0.0600    0.0000 H       1  UNL1        0.0231
     17 H           7.5062    0.7869    0.0000 H       1  UNL1        0.0231
     18 H           1.6900    0.7869    0.0000 H       1  UNL1        0.0235
     19 H           1.4631   -0.0600    0.0000 H       1  UNL1        0.0235
     20 H           2.3100   -0.2869    0.0000 H       1  UNL1        0.0235
@<TRIPOS>BOND
     1     1     4    1
     2     1     7    1
     3     2     7    2
     4     3     4    1
     5     3     5    1
     6     3     9    1
     7     3    10    1
     8     4    11    1
     9     4    12    1
    10     5    15    1
    11     5    16    1
    12     5    17    1
    13     6     7    1
    14     6     8    1
    15     6    13    1
    16     6    14    1
    17     8    18    1
    18     8    19    1
    19     8    20    1
