@<TRIPOS>MOLECULE
IMPHY003094
 51 53 0 0 0
SMALL
GASTEIGER

@<TRIPOS>ATOM
      1 O           8.0622   -0.5000    0.0000 O.3     1  UNL1       -0.3302
      2 O           9.7942   -0.5000    0.0000 O.3     1  UNL1       -0.4605
      3 O           6.3301   -2.5000    0.0000 O.3     1  UNL1       -0.3864
      4 O           8.0622   -3.5000    0.0000 O.3     1  UNL1       -0.3864
      5 O           9.7942   -2.5000    0.0000 O.3     1  UNL1       -0.3829
      6 O           5.4641   -1.0000    0.0000 O.3     1  UNL1       -0.4585
      7 O           4.5981    0.5000    0.0000 O.2     1  UNL1       -0.2450
      8 O          12.3923    1.0000    0.0000 O.3     1  UNL1       -0.3903
      9 O           9.7942    3.5000    0.0000 O.3     1  UNL1       -0.5068
     10 C           7.1962   -2.0000    0.0000 C.3     1  UNL1        0.1130
     11 C           8.0622   -2.5000    0.0000 C.3     1  UNL1        0.1152
     12 C           7.1962   -1.0000    0.0000 C.3     1  UNL1        0.1250
     13 C           8.9282   -2.0000    0.0000 C.3     1  UNL1        0.1454
     14 C           8.9282   -1.0000    0.0000 C.3     1  UNL1        0.2308
     15 C           6.3301   -0.5000    0.0000 C.3     1  UNL1        0.1215
     16 C           9.7942    0.5000    0.0000 C.ar    1  UNL1        0.1296
     17 C          10.6603    1.0000    0.0000 C.ar    1  UNL1        0.0230
     18 C           8.9282    1.0000    0.0000 C.ar    1  UNL1       -0.0160
     19 C           4.5981   -0.5000    0.0000 C.2     1  UNL1        0.3393
     20 C          10.6603    2.0000    0.0000 C.ar    1  UNL1       -0.0113
     21 C          11.5263    0.5000    0.0000 C.3     1  UNL1        0.0728
     22 C           8.9282    2.0000    0.0000 C.ar    1  UNL1       -0.0167
     23 C           9.7942    2.5000    0.0000 C.ar    1  UNL1        0.1174
     24 C           3.7320   -1.0000    0.0000 C.ar    1  UNL1        0.0590
     25 C           2.8660   -0.5000    0.0000 C.ar    1  UNL1       -0.0478
     26 C           3.7320   -2.0000    0.0000 C.ar    1  UNL1       -0.0478
     27 C           2.0000   -1.0000    0.0000 C.ar    1  UNL1       -0.0610
     28 C           2.8660   -2.5000    0.0000 C.ar    1  UNL1       -0.0610
     29 C           2.0000   -2.0000    0.0000 C.ar    1  UNL1       -0.0617
     30 H           6.6592   -1.6900    0.0000 H       1  UNL1        0.0647
     31 H           7.5252   -2.8100    0.0000 H       1  UNL1        0.0648
     32 H           7.1962   -0.3800    0.0000 H       1  UNL1        0.0658
     33 H           9.4651   -1.6900    0.0000 H       1  UNL1        0.0683
     34 H           8.9282   -0.3800    0.0000 H       1  UNL1        0.1084
     35 H           6.7287   -0.0251    0.0000 H       1  UNL1        0.0725
     36 H           5.9316   -0.0251    0.0000 H       1  UNL1        0.0725
     37 H           6.3301   -3.1200    0.0000 H       1  UNL1        0.2100
     38 H           7.5252   -3.8100    0.0000 H       1  UNL1        0.2100
     39 H           9.7942   -3.1200    0.0000 H       1  UNL1        0.2102
     40 H           8.3913    0.6900    0.0000 H       1  UNL1        0.0655
     41 H          11.1972    2.3100    0.0000 H       1  UNL1        0.0659
     42 H          11.1278    0.0251    0.0000 H       1  UNL1        0.0608
     43 H          11.9248    0.0251    0.0000 H       1  UNL1        0.0608
     44 H           8.3913    2.3100    0.0000 H       1  UNL1        0.0655
     45 H           2.8660    0.1200    0.0000 H       1  UNL1        0.0626
     46 H           4.2690   -2.3100    0.0000 H       1  UNL1        0.0626
     47 H          12.9292    0.6900    0.0000 H       1  UNL1        0.2098
     48 H          10.3312    3.8100    0.0000 H       1  UNL1        0.2921
     49 H           1.4631   -0.6900    0.0000 H       1  UNL1        0.0618
     50 H           2.8660   -3.1200    0.0000 H       1  UNL1        0.0618
     51 H           1.4631   -2.3100    0.0000 H       1  UNL1        0.0618
@<TRIPOS>BOND
     1     1    12    1
     2     1    14    1
     3    14     2    1
     4     2    16    1
     5    10     3    1
     6     3    37    1
     7    11     4    1
     8     4    38    1
     9    13     5    1
    10     5    39    1
    11     6    15    1
    12     6    19    1
    13     7    19    2
    14     8    21    1
    15     8    47    1
    16     9    23    1
    17     9    48    1
    18    10    11    1
    19    10    12    1
    20    10    30    1
    21    11    13    1
    22    11    31    1
    23    12    15    1
    24    12    32    1
    25    13    14    1
    26    13    33    1
    27    14    34    1
    28    15    35    1
    29    15    36    1
    30    16    17   ar
    31    16    18   ar
    32    17    20   ar
    33    17    21    1
    34    18    22   ar
    35    18    40    1
    36    19    24    1
    37    20    23   ar
    38    20    41    1
    39    21    42    1
    40    21    43    1
    41    22    23   ar
    42    22    44    1
    43    24    25   ar
    44    24    26   ar
    45    25    27   ar
    46    25    45    1
    47    26    28   ar
    48    26    46    1
    49    27    29   ar
    50    27    49    1
    51    28    29   ar
    52    28    50    1
    53    29    51    1
