@<TRIPOS>MOLECULE
IMPHY008463
 22 24 0 0 0
SMALL
GASTEIGER

@<TRIPOS>ATOM
      1 O           6.4783    0.6293    0.0000 O.2     1  UNL1       -0.4589
      2 O           4.6660   -2.1754    0.0000 O.2     1  UNL1       -0.2865
      3 O           4.6660    1.8246    0.0000 O.2     1  UNL1       -0.2832
      4 O           2.9176    1.8592    0.0000 O.3     1  UNL1       -0.5060
      5 C           3.8000    0.3246    0.0000 C.ar    1  UNL1        0.0775
      6 C           3.8000   -0.6754    0.0000 C.ar    1  UNL1        0.0368
      7 C           5.5321   -0.6754    0.0000 C.ar    1  UNL1        0.0712
      8 C           5.5321    0.3246    0.0000 C.ar    1  UNL1        0.1856
      9 C           4.6660   -1.1754    0.0000 C.2     1  UNL1        0.1977
     10 C           4.6660    0.8246    0.0000 C.2     1  UNL1        0.2328
     11 C           2.9061    0.8593    0.0000 C.ar    1  UNL1        0.1285
     12 C           2.9061   -1.2100    0.0000 C.ar    1  UNL1       -0.0500
     13 C           6.4783   -0.9801    0.0000 C.ar    1  UNL1       -0.0123
     14 C           2.0000    0.3454    0.0000 C.ar    1  UNL1       -0.0194
     15 C           2.0000   -0.6962    0.0000 C.ar    1  UNL1       -0.0576
     16 C           7.0619   -0.1754    0.0000 C.ar    1  UNL1        0.0934
     17 H           2.9132   -1.8300    0.0000 H       1  UNL1        0.0625
     18 H           6.6709   -1.5694    0.0000 H       1  UNL1        0.0656
     19 H           1.4643    0.6575    0.0000 H       1  UNL1        0.0654
     20 H           1.4643   -1.0083    0.0000 H       1  UNL1        0.0619
     21 H           7.6819   -0.1754    0.0000 H       1  UNL1        0.1030
     22 H           2.3843    2.1754    0.0000 H       1  UNL1        0.2922
@<TRIPOS>BOND
     1     1     8   ar
     2     1    16   ar
     3     2     9    2
     4     3    10    2
     5     4    11    1
     6     4    22    1
     7     5     6   ar
     8     5    10    1
     9     5    11   ar
    10     6     9    1
    11     6    12   ar
    12     7     8   ar
    13     7     9    1
    14     7    13   ar
    15     8    10    1
    16    11    14   ar
    17    12    15   ar
    18    12    17    1
    19    13    16   ar
    20    13    18    1
    21    14    15   ar
    22    14    19    1
    23    15    20    1
    24    16    21    1
