@<TRIPOS>MOLECULE
IMPHY008338
 95 98 0 0 0
SMALL
GASTEIGER

@<TRIPOS>ATOM
      1 O          12.4981    5.7738    0.0000 O.3     1  UNL1       -0.3912
      2 O          14.8713    5.1672    0.0000 O.3     1  UNL1       -0.3944
      3 O           9.9307   -2.7676    0.0000 O.3     1  UNL1       -0.3446
      4 O           8.1986   -2.7676    0.0000 O.3     1  UNL1       -0.3405
      5 O           6.4666   -1.7676    0.0000 O.3     1  UNL1       -0.3460
      6 O           4.6870   -1.6743    0.0000 O.3     1  UNL1       -0.3405
      7 O           9.9307   -4.7676    0.0000 O.3     1  UNL1       -0.3841
      8 O           8.1986   -5.7676    0.0000 O.3     1  UNL1       -0.3864
      9 O           6.4666   -4.7676    0.0000 O.3     1  UNL1       -0.3865
     10 O           6.2392    0.3961    0.0000 O.3     1  UNL1       -0.3841
     11 O           4.1111    0.8484    0.0000 O.3     1  UNL1       -0.3864
     12 O           2.6166   -1.9493    0.0000 O.3     1  UNL1       -0.3924
     13 C          12.5328    2.7740    0.0000 C.3     1  UNL1       -0.0220
     14 C          13.3929    3.2840    0.0000 C.3     1  UNL1       -0.0250
     15 C          13.3814    4.2839    0.0000 C.3     1  UNL1        0.0203
     16 C          12.5287    1.7324    0.0000 C.3     1  UNL1       -0.0142
     17 C          11.6610    3.2640    0.0000 C.3     1  UNL1       -0.0445
     18 C          12.5096    4.7739    0.0000 C.3     1  UNL1        0.0630
     19 C          14.3087    2.7877    0.0000 C.3     1  UNL1       -0.0454
     20 C          11.6494    4.2639    0.0000 C.3     1  UNL1       -0.0257
     21 C          11.6726    2.2640    0.0000 C.3     1  UNL1       -0.0587
     22 C          14.3288    1.7463    0.0000 C.3     1  UNL1       -0.0314
     23 C          13.4328    1.2151    0.0000 C.2     1  UNL1       -0.0730
     24 C          13.8713    5.1557    0.0000 C.3     1  UNL1        0.0522
     25 C          14.3813    4.2955    0.0000 C.3     1  UNL1       -0.0548
     26 C          11.6627    1.2324    0.0000 C.3     1  UNL1       -0.0423
     27 C          11.6627    0.2324    0.0000 C.3     1  UNL1       -0.0314
     28 C          13.4405    0.2151    0.0000 C.2     1  UNL1       -0.0992
     29 C          10.7967   -0.2676    0.0000 C.2     1  UNL1       -0.0744
     30 C           9.9307    0.2324    0.0000 C.3     1  UNL1       -0.0437
     31 C          10.7967   -1.2676    0.0000 C.2     1  UNL1       -0.0596
     32 C           9.9307   -1.7676    0.0000 C.3     1  UNL1        0.0692
     33 C           9.0646   -3.2676    0.0000 C.3     1  UNL1        0.1882
     34 C           9.0646   -4.2676    0.0000 C.3     1  UNL1        0.1341
     35 C           7.3326   -3.2676    0.0000 C.3     1  UNL1        0.1134
     36 C           8.1986   -4.7676    0.0000 C.3     1  UNL1        0.1141
     37 C           7.3326   -4.2676    0.0000 C.3     1  UNL1        0.1119
     38 C           6.4666   -2.7676    0.0000 C.3     1  UNL1        0.0796
     39 C           5.6005   -1.2676    0.0000 C.3     1  UNL1        0.1880
     40 C           5.4960   -0.2731    0.0000 C.3     1  UNL1        0.1341
     41 C           4.5179   -0.0652    0.0000 C.3     1  UNL1        0.1141
     42 C           4.0179   -0.9312    0.0000 C.3     1  UNL1        0.1131
     43 C           3.0233   -1.0357    0.0000 C.3     1  UNL1        0.0730
     44 H          13.9238    3.6043    0.0000 H       1  UNL1        0.0313
     45 H          12.5299    1.1124    0.0000 H       1  UNL1        0.0351
     46 H          11.0492    3.3646    0.0000 H       1  UNL1        0.0272
     47 H          11.4557    2.6790    0.0000 H       1  UNL1        0.0272
     48 H          13.0429    5.0901    0.0000 H       1  UNL1        0.0599
     49 H          14.9215    2.6934    0.0000 H       1  UNL1        0.0271
     50 H          14.5065    3.3753    0.0000 H       1  UNL1        0.0271
     51 H          11.4307    4.8440    0.0000 H       1  UNL1        0.0290
     52 H          11.0401    4.1492    0.0000 H       1  UNL1        0.0290
     53 H          11.3564    2.7974    0.0000 H       1  UNL1        0.0235
     54 H          11.1393    1.9479    0.0000 H       1  UNL1        0.0235
     55 H          11.9888    1.7307    0.0000 H       1  UNL1        0.0235
     56 H          14.5491    1.1667    0.0000 H       1  UNL1        0.0310
     57 H          14.9375    1.8641    0.0000 H       1  UNL1        0.0310
     58 H          13.9719    5.7675    0.0000 H       1  UNL1        0.0563
     59 H          13.2863    5.3610    0.0000 H       1  UNL1        0.0563
     60 H          14.3885    3.6755    0.0000 H       1  UNL1        0.0237
     61 H          15.0013    4.3027    0.0000 H       1  UNL1        0.0237
     62 H          14.3741    4.9155    0.0000 H       1  UNL1        0.0237
     63 H          11.4507    1.8150    0.0000 H       1  UNL1        0.0274
     64 H          11.0521    1.1247    0.0000 H       1  UNL1        0.0274
     65 H          11.8748   -0.3502    0.0000 H       1  UNL1        0.0310
     66 H          12.2733    0.3401    0.0000 H       1  UNL1        0.0310
     67 H          11.9576    6.0776    0.0000 H       1  UNL1        0.2098
     68 H          12.9060   -0.0990    0.0000 H       1  UNL1        0.0534
     69 H          13.9798   -0.0908    0.0000 H       1  UNL1        0.0534
     70 H          15.1750    5.7077    0.0000 H       1  UNL1        0.2094
     71 H          10.2407    0.7693    0.0000 H       1  UNL1        0.0274
     72 H           9.3937    0.5424    0.0000 H       1  UNL1        0.0274
     73 H           9.6207   -0.3045    0.0000 H       1  UNL1        0.0274
     74 H          11.3336   -1.5776    0.0000 H       1  UNL1        0.0594
     75 H           9.7186   -1.1850    0.0000 H       1  UNL1        0.0605
     76 H           9.3201   -1.8753    0.0000 H       1  UNL1        0.0605
     77 H           9.6016   -3.5776    0.0000 H       1  UNL1        0.0938
     78 H           9.0646   -4.8876    0.0000 H       1  UNL1        0.0671
     79 H           7.3326   -2.6476    0.0000 H       1  UNL1        0.0647
     80 H           7.6617   -5.0776    0.0000 H       1  UNL1        0.0648
     81 H           6.7956   -3.9576    0.0000 H       1  UNL1        0.0647
     82 H           5.8560   -2.6599    0.0000 H       1  UNL1        0.0587
     83 H           6.2545   -3.3502    0.0000 H       1  UNL1        0.0587
     84 H           5.5681   -1.8868    0.0000 H       1  UNL1        0.0937
     85 H           6.0748   -0.4953    0.0000 H       1  UNL1        0.0671
     86 H           4.9080    0.4167    0.0000 H       1  UNL1        0.0648
     87 H           3.7957   -1.5100    0.0000 H       1  UNL1        0.0647
     88 H          10.4676   -4.4576    0.0000 H       1  UNL1        0.2101
     89 H           7.6617   -6.0776    0.0000 H       1  UNL1        0.2100
     90 H           5.9296   -4.4576    0.0000 H       1  UNL1        0.2100
     91 H           3.0666   -0.4172    0.0000 H       1  UNL1        0.0584
     92 H           2.4218   -0.8857    0.0000 H       1  UNL1        0.0584
     93 H           6.1102    1.0025    0.0000 H       1  UNL1        0.2101
     94 H           3.4945    0.9132    0.0000 H       1  UNL1        0.2100
     95 H           2.0000   -2.0141    0.0000 H       1  UNL1        0.2095
@<TRIPOS>BOND
     1     1    18    1
     2     1    67    1
     3     2    24    1
     4     2    70    1
     5     3    32    1
     6     3    33    1
     7     4    33    1
     8     4    35    1
     9     5    38    1
    10     5    39    1
    11     6    39    1
    12     6    42    1
    13     7    34    1
    14     7    88    1
    15     8    36    1
    16     8    89    1
    17     9    37    1
    18     9    90    1
    19    10    40    1
    20    10    93    1
    21    11    41    1
    22    11    94    1
    23    12    43    1
    24    12    95    1
    25    13    14    1
    26    13    16    1
    27    13    17    1
    28    13    21    1
    29    14    15    1
    30    14    19    1
    31    14    44    1
    32    15    18    1
    33    15    24    1
    34    15    25    1
    35    16    23    1
    36    16    26    1
    37    16    45    1
    38    17    20    1
    39    17    46    1
    40    17    47    1
    41    18    20    1
    42    18    48    1
    43    19    22    1
    44    19    49    1
    45    19    50    1
    46    20    51    1
    47    20    52    1
    48    21    53    1
    49    21    54    1
    50    21    55    1
    51    22    23    1
    52    22    56    1
    53    22    57    1
    54    23    28    2
    55    24    58    1
    56    24    59    1
    57    25    60    1
    58    25    61    1
    59    25    62    1
    60    26    27    1
    61    26    63    1
    62    26    64    1
    63    27    29    1
    64    27    65    1
    65    27    66    1
    66    28    68    1
    67    28    69    1
    68    29    30    1
    69    29    31    2
    70    30    71    1
    71    30    72    1
    72    30    73    1
    73    31    32    1
    74    31    74    1
    75    32    75    1
    76    32    76    1
    77    33    34    1
    78    33    77    1
    79    34    36    1
    80    34    78    1
    81    35    37    1
    82    35    38    1
    83    35    79    1
    84    36    37    1
    85    36    80    1
    86    37    81    1
    87    38    82    1
    88    38    83    1
    89    39    40    1
    90    39    84    1
    91    40    41    1
    92    40    85    1
    93    41    42    1
    94    41    86    1
    95    42    43    1
    96    42    87    1
    97    43    91    1
    98    43    92    1
