@<TRIPOS>MOLECULE
IMPHY006570
 27 28 0 0 0
SMALL
GASTEIGER

@<TRIPOS>ATOM
      1 S           5.9150   -0.4197    0.0000 S.2     1  UNL1       -0.0848
      2 S           8.4841    0.4468    0.0000 S.2     1  UNL1       -0.0794
      3 O           3.9470   -1.1191    0.0000 O.2     1  UNL1       -0.2890
      4 O           2.4608    0.2192    0.0000 O.3     1  UNL1       -0.3871
      5 C           6.7240    0.1681    0.0000 C.ar    1  UNL1        0.0266
      6 C           7.6751   -0.1410    0.0000 C.ar    1  UNL1        0.0271
      7 C           5.1060    0.1681    0.0000 C.ar    1  UNL1        0.0575
      8 C           6.4150    1.1191    0.0000 C.ar    1  UNL1       -0.0458
      9 C           5.4150    1.1191    0.0000 C.ar    1  UNL1       -0.0435
     10 C           7.9841   -1.0920    0.0000 C.ar    1  UNL1       -0.0452
     11 C           4.1550   -0.1410    0.0000 C.2     1  UNL1        0.1948
     12 C           8.9841   -1.0920    0.0000 C.ar    1  UNL1       -0.0386
     13 C           9.2931   -0.1410    0.0000 C.ar    1  UNL1        0.0625
     14 C           3.4118    0.5282    0.0000 C.3     1  UNL1        0.1074
     15 C          10.2442    0.1681    0.0000 C.1     1  UNL1       -0.0594
     16 C          11.1952    0.4771    0.0000 C.1     1  UNL1       -0.0998
     17 C          12.1463    0.7861    0.0000 C.3     1  UNL1       -0.0022
     18 H           6.7794    1.6207    0.0000 H       1  UNL1        0.0629
     19 H           5.0506    1.6207    0.0000 H       1  UNL1        0.0630
     20 H           7.6197   -1.5936    0.0000 H       1  UNL1        0.0629
     21 H           9.3485   -1.5936    0.0000 H       1  UNL1        0.0635
     22 H           3.9004    0.9099    0.0000 H       1  UNL1        0.0640
     23 H           3.1207    1.0756    0.0000 H       1  UNL1        0.0640
     24 H           2.0000    0.6340    0.0000 H       1  UNL1        0.2100
     25 H          12.3379    0.1964    0.0000 H       1  UNL1        0.0362
     26 H          12.7360    0.9777    0.0000 H       1  UNL1        0.0362
     27 H          11.9547    1.3757    0.0000 H       1  UNL1        0.0362
@<TRIPOS>BOND
     1     1     5   ar
     2     1     7   ar
     3     2     6   ar
     4     2    13   ar
     5     3    11    2
     6     4    14    1
     7     4    24    1
     8     5     6    1
     9     5     8   ar
    10     6    10   ar
    11     7     9   ar
    12     7    11    1
    13     8     9   ar
    14     8    18    1
    15     9    19    1
    16    10    12   ar
    17    10    20    1
    18    11    14    1
    19    12    13   ar
    20    12    21    1
    21    13    15    1
    22    14    22    1
    23    14    23    1
    24    15    16    3
    25    16    17    1
    26    17    25    1
    27    17    26    1
    28    17    27    1
