@<TRIPOS>MOLECULE
IMPHY007931
 55 57 0 0 0
SMALL
GASTEIGER

@<TRIPOS>ATOM
      1 O           8.9965    2.7986    0.0000 O.3     1  UNL1       -0.4911
      2 O          10.7783    1.7882    0.0000 O.3     1  UNL1       -0.4914
      3 O           7.2482    0.7640    0.0000 O.2     1  UNL1       -0.2917
      4 O           2.8641   -1.7811    0.0000 O.3     1  UNL1       -0.4914
      5 O           4.6380   -2.8052    0.0000 O.3     1  UNL1       -0.4914
      6 N           6.3821    1.2640    0.0000 N.3     1  UNL1       -0.3007
      7 C           5.5161    1.7640    0.0000 C.3     1  UNL1        0.0029
      8 C           7.2482    1.7640    0.0000 C.3     1  UNL1        0.0276
      9 C           4.6501    1.2640    0.0000 C.3     1  UNL1       -0.0141
     10 C           8.1142    1.2640    0.0000 C.ar    1  UNL1        0.0154
     11 C           4.6501    0.2640    0.0000 C.ar    1  UNL1       -0.0320
     12 C           8.1142    0.2640    0.0000 C.ar    1  UNL1       -0.0318
     13 C           7.2482   -0.2360    0.0000 C.3     1  UNL1        0.0361
     14 C           5.5161   -0.2360    0.0000 C.ar    1  UNL1        0.0246
     15 C           6.3821    0.2640    0.0000 C.2     1  UNL1        0.1678
     16 C           9.0081    1.7987    0.0000 C.ar    1  UNL1        0.1661
     17 C           5.5161    0.7639    0.0000 C.3     1  UNL1       -0.0124
     18 C           3.7401   -0.2428    0.0000 C.ar    1  UNL1       -0.0124
     19 C           9.0081   -0.2707    0.0000 C.ar    1  UNL1       -0.0542
     20 C           5.5322   -1.2775    0.0000 C.ar    1  UNL1       -0.0056
     21 C           9.9142    1.2848    0.0000 C.ar    1  UNL1        0.1618
     22 C           3.7320   -1.2844    0.0000 C.ar    1  UNL1        0.1618
     23 C           9.9142    0.2432    0.0000 C.ar    1  UNL1       -0.0160
     24 C           4.6341   -1.8052    0.0000 C.ar    1  UNL1        0.1622
     25 C           9.8567    3.3086    0.0000 C.3     1  UNL1        0.0790
     26 C          11.6462    1.2915    0.0000 C.3     1  UNL1        0.0790
     27 C           2.0000   -1.2778    0.0000 C.3     1  UNL1        0.0790
     28 C           3.7739   -3.3086    0.0000 C.3     1  UNL1        0.0790
     29 H           5.9146    2.2390    0.0000 H       1  UNL1        0.0430
     30 H           5.1176    2.2390    0.0000 H       1  UNL1        0.0430
     31 H           7.6467    2.2390    0.0000 H       1  UNL1        0.0477
     32 H           6.8496    2.2390    0.0000 H       1  UNL1        0.0477
     33 H           4.4380    1.8466    0.0000 H       1  UNL1        0.0326
     34 H           4.0395    1.1563    0.0000 H       1  UNL1        0.0326
     35 H           6.8496   -0.7109    0.0000 H       1  UNL1        0.0394
     36 H           7.6467   -0.7109    0.0000 H       1  UNL1        0.0394
     37 H           5.2061    1.3008    0.0000 H       1  UNL1        0.0391
     38 H           4.9792    0.4539    0.0000 H       1  UNL1        0.0391
     39 H           5.8262    0.2270    0.0000 H       1  UNL1        0.0391
     40 H           3.2068    0.0733    0.0000 H       1  UNL1        0.0658
     41 H           9.0009   -0.8906    0.0000 H       1  UNL1        0.0622
     42 H           6.0726   -1.5813    0.0000 H       1  UNL1        0.0662
     43 H          10.4499   -0.0689    0.0000 H       1  UNL1        0.0655
     44 H          10.1729    2.7753    0.0000 H       1  UNL1        0.0660
     45 H          10.3901    3.6248    0.0000 H       1  UNL1        0.0660
     46 H           9.5406    3.8419    0.0000 H       1  UNL1        0.0660
     47 H          11.3383    0.7534    0.0000 H       1  UNL1        0.0660
     48 H          12.1843    0.9836    0.0000 H       1  UNL1        0.0660
     49 H          11.9541    1.8296    0.0000 H       1  UNL1        0.0660
     50 H           2.3121   -0.7420    0.0000 H       1  UNL1        0.0660
     51 H           1.4643   -0.9657    0.0000 H       1  UNL1        0.0660
     52 H           1.6879   -1.8135    0.0000 H       1  UNL1        0.0660
     53 H           3.4618   -2.7728    0.0000 H       1  UNL1        0.0660
     54 H           3.2381   -3.6206    0.0000 H       1  UNL1        0.0660
     55 H           4.0860   -3.8443    0.0000 H       1  UNL1        0.0660
@<TRIPOS>BOND
     1     1    16    1
     2     1    25    1
     3     2    21    1
     4     2    26    1
     5     3    15    2
     6     4    22    1
     7     4    27    1
     8     5    24    1
     9     5    28    1
    10     6     7    1
    11     6     8    1
    12     6    17    1
    13     7     9    1
    14     7    29    1
    15     7    30    1
    16     8    10    1
    17     8    31    1
    18     8    32    1
    19     9    11    1
    20     9    33    1
    21     9    34    1
    22    10    12   ar
    23    10    16   ar
    24    11    14   ar
    25    11    18   ar
    26    12    13    1
    27    12    19   ar
    28    13    15    1
    29    13    35    1
    30    13    36    1
    31    14    15    1
    32    14    20   ar
    33    16    21   ar
    34    17    37    1
    35    17    38    1
    36    17    39    1
    37    18    22   ar
    38    18    40    1
    39    19    23   ar
    40    19    41    1
    41    20    24   ar
    42    20    42    1
    43    21    23   ar
    44    22    24   ar
    45    23    43    1
    46    25    44    1
    47    25    45    1
    48    25    46    1
    49    26    47    1
    50    26    48    1
    51    26    49    1
    52    27    50    1
    53    27    51    1
    54    27    52    1
    55    28    53    1
    56    28    54    1
    57    28    55    1
