@<TRIPOS>MOLECULE
IMPHY000621
 38 39 0 0 0
SMALL
GASTEIGER

@<TRIPOS>ATOM
      1 O           2.5369   -0.7979    0.0000 O.3     1  UNL1       -0.3886
      2 O           2.5369    1.2021    0.0000 O.3     1  UNL1       -0.3889
      3 C           5.1350   -0.2979    0.0000 C.2     1  UNL1       -0.0643
      4 C           4.2690   -0.7979    0.0000 C.3     1  UNL1        0.0060
      5 C           5.1350    0.7021    0.0000 C.2     1  UNL1       -0.0674
      6 C           6.0290   -0.8326    0.0000 C.3     1  UNL1       -0.0246
      7 C           6.9350   -0.3187    0.0000 C.3     1  UNL1       -0.0164
      8 C           3.4030   -0.2979    0.0000 C.3     1  UNL1        0.0875
      9 C           4.2690    1.2021    0.0000 C.3     1  UNL1       -0.0029
     10 C           3.4030    0.7021    0.0000 C.3     1  UNL1        0.0853
     11 C           6.0290    1.2367    0.0000 C.3     1  UNL1       -0.0308
     12 C           6.9350    0.7229    0.0000 C.3     1  UNL1       -0.0425
     13 C           4.2690   -1.7979    0.0000 C.3     1  UNL1       -0.0562
     14 C           7.7991   -0.8221    0.0000 C.2     1  UNL1       -0.0763
     15 C           8.6671   -0.3254    0.0000 C.3     1  UNL1       -0.0438
     16 C           7.7953   -1.8221    0.0000 C.2     1  UNL1       -0.0994
     17 H           4.8059   -1.1079    0.0000 H       1  UNL1        0.0369
     18 H           5.6244   -1.3024    0.0000 H       1  UNL1        0.0316
     19 H           6.4226   -1.3116    0.0000 H       1  UNL1        0.0316
     20 H           7.4726   -0.0098    0.0000 H       1  UNL1        0.0349
     21 H           3.4030   -0.9179    0.0000 H       1  UNL1        0.0625
     22 H           4.6675    1.6770    0.0000 H       1  UNL1        0.0336
     23 H           3.8705    1.6770    0.0000 H       1  UNL1        0.0336
     24 H           3.4030    1.3221    0.0000 H       1  UNL1        0.0622
     25 H           6.4226    1.7158    0.0000 H       1  UNL1        0.0310
     26 H           5.6244    1.7065    0.0000 H       1  UNL1        0.0310
     27 H           7.5459    0.6168    0.0000 H       1  UNL1        0.0274
     28 H           7.1441    1.3066    0.0000 H       1  UNL1        0.0274
     29 H           3.6490   -1.7979    0.0000 H       1  UNL1        0.0236
     30 H           4.2690   -2.4179    0.0000 H       1  UNL1        0.0236
     31 H           4.8890   -1.7979    0.0000 H       1  UNL1        0.0236
     32 H           2.0000   -0.4879    0.0000 H       1  UNL1        0.2099
     33 H           2.5369    1.8221    0.0000 H       1  UNL1        0.2099
     34 H           8.9750   -0.8635    0.0000 H       1  UNL1        0.0274
     35 H           9.2052   -0.0175    0.0000 H       1  UNL1        0.0274
     36 H           8.3591    0.2127    0.0000 H       1  UNL1        0.0274
     37 H           7.2571   -2.1300    0.0000 H       1  UNL1        0.0534
     38 H           8.3310   -2.1341    0.0000 H       1  UNL1        0.0534
@<TRIPOS>BOND
     1     8     1    1
     2     1    32    1
     3    10     2    1
     4     2    33    1
     5     3     4    1
     6     3     5    2
     7     3     6    1
     8     4     8    1
     9     4    13    1
    10     4    17    1
    11     5     9    1
    12     5    11    1
    13     6     7    1
    14     6    18    1
    15     6    19    1
    16     7    12    1
    17     7    14    1
    18     7    20    1
    19     8    10    1
    20     8    21    1
    21     9    10    1
    22     9    22    1
    23     9    23    1
    24    10    24    1
    25    11    12    1
    26    11    25    1
    27    11    26    1
    28    12    27    1
    29    12    28    1
    30    13    29    1
    31    13    30    1
    32    13    31    1
    33    14    15    1
    34    14    16    2
    35    15    34    1
    36    15    35    1
    37    15    36    1
    38    16    37    1
    39    16    38    1
