@<TRIPOS>MOLECULE
IMPHY003992
 77 81 0 0 0
SMALL
GASTEIGER

@<TRIPOS>ATOM
      1 O           6.8671   -1.8743    0.0000 O.3     1  UNL1       -0.3313
      2 O           6.0010   -4.3743    0.0000 O.3     1  UNL1       -0.3461
      3 O           4.2690   -4.3743    0.0000 O.3     1  UNL1       -0.3431
      4 O           7.7331   -4.3743    0.0000 O.3     1  UNL1       -0.3865
      5 O           7.7331   -0.3743    0.0000 O.3     1  UNL1       -0.4606
      6 O           9.4651   -3.3743    0.0000 O.3     1  UNL1       -0.3864
      7 O           9.4651   -1.3743    0.0000 O.3     1  UNL1       -0.3829
      8 O           6.0010   -6.3743    0.0000 O.3     1  UNL1       -0.3841
      9 O           4.2690   -7.3743    0.0000 O.3     1  UNL1       -0.3864
     10 O           2.5369   -6.3743    0.0000 O.3     1  UNL1       -0.3866
     11 O           5.9589    2.6777    0.0000 O.3     1  UNL1       -0.4828
     12 O           4.1934   -0.3470    0.0000 O.3     1  UNL1       -0.5058
     13 O           3.3550    1.1877    0.0000 O.2     1  UNL1       -0.2917
     14 O           5.1102    7.1810    0.0000 O.3     1  UNL1       -0.4915
     15 O           6.8384    6.1743    0.0000 O.3     1  UNL1       -0.5033
     16 C           6.8671   -2.8743    0.0000 C.3     1  UNL1        0.1144
     17 C           7.7331   -3.3743    0.0000 C.3     1  UNL1        0.1120
     18 C           8.5991   -2.8743    0.0000 C.3     1  UNL1        0.1152
     19 C           8.5991   -1.8743    0.0000 C.3     1  UNL1        0.1454
     20 C           5.1350   -5.8743    0.0000 C.3     1  UNL1        0.1341
     21 C           5.1350   -4.8743    0.0000 C.3     1  UNL1        0.1879
     22 C           4.2690   -6.3743    0.0000 C.3     1  UNL1        0.1140
     23 C           3.4030   -5.8743    0.0000 C.3     1  UNL1        0.1095
     24 C           7.7331   -1.3743    0.0000 C.3     1  UNL1        0.2308
     25 C           6.0010   -3.3743    0.0000 C.3     1  UNL1        0.0796
     26 C           3.4030   -4.8743    0.0000 C.3     1  UNL1        0.0873
     27 C           2.5369   -4.3743    0.0000 C.3     1  UNL1       -0.0361
     28 C           6.8671    0.1257    0.0000 C.ar    1  UNL1        0.1310
     29 C           6.8630    1.1673    0.0000 C.ar    1  UNL1        0.0229
     30 C           5.9550    1.6777    0.0000 C.ar    1  UNL1        0.1389
     31 C           5.9630   -0.3916    0.0000 C.ar    1  UNL1        0.0226
     32 C           5.0871    1.1810    0.0000 C.ar    1  UNL1        0.1007
     33 C           5.0948    3.1810    0.0000 C.3     1  UNL1        0.1323
     34 C           4.2268    2.6843    0.0000 C.3     1  UNL1        0.0520
     35 C           5.0670    0.1396    0.0000 C.ar    1  UNL1        0.1343
     36 C           4.2230    1.6844    0.0000 C.2     1  UNL1        0.1740
     37 C           5.0986    4.1810    0.0000 C.ar    1  UNL1       -0.0033
     38 C           5.9666    4.6776    0.0000 C.ar    1  UNL1       -0.0098
     39 C           4.2345    4.6843    0.0000 C.ar    1  UNL1       -0.0514
     40 C           5.9704    5.6776    0.0000 C.ar    1  UNL1        0.1588
     41 C           4.2384    5.6843    0.0000 C.ar    1  UNL1       -0.0159
     42 C           5.1063    6.1810    0.0000 C.ar    1  UNL1        0.1613
     43 C           4.2461    7.6843    0.0000 C.3     1  UNL1        0.0790
     44 H           6.3301   -2.5643    0.0000 H       1  UNL1        0.0647
     45 H           8.2700   -3.6843    0.0000 H       1  UNL1        0.0647
     46 H           9.1360   -2.5643    0.0000 H       1  UNL1        0.0648
     47 H           8.5991   -1.2543    0.0000 H       1  UNL1        0.0683
     48 H           5.1350   -6.4943    0.0000 H       1  UNL1        0.0671
     49 H           5.1350   -4.2543    0.0000 H       1  UNL1        0.0937
     50 H           3.7320   -6.6843    0.0000 H       1  UNL1        0.0648
     51 H           3.4030   -6.4943    0.0000 H       1  UNL1        0.0646
     52 H           7.1962   -1.0643    0.0000 H       1  UNL1        0.1084
     53 H           5.7890   -2.7917    0.0000 H       1  UNL1        0.0587
     54 H           5.3905   -3.4820    0.0000 H       1  UNL1        0.0587
     55 H           3.4030   -4.2543    0.0000 H       1  UNL1        0.0621
     56 H           2.8469   -3.8374    0.0000 H       1  UNL1        0.0255
     57 H           2.0000   -4.0643    0.0000 H       1  UNL1        0.0255
     58 H           2.2269   -4.9112    0.0000 H       1  UNL1        0.0255
     59 H           8.2700   -4.6843    0.0000 H       1  UNL1        0.2100
     60 H          10.0021   -3.0643    0.0000 H       1  UNL1        0.2100
     61 H           9.4651   -0.7543    0.0000 H       1  UNL1        0.2102
     62 H           6.5380   -6.0643    0.0000 H       1  UNL1        0.2101
     63 H           3.7320   -7.6843    0.0000 H       1  UNL1        0.2100
     64 H           2.0000   -6.0643    0.0000 H       1  UNL1        0.2100
     65 H           7.3976    1.4814    0.0000 H       1  UNL1        0.0691
     66 H           5.9582   -1.0116    0.0000 H       1  UNL1        0.0691
     67 H           5.6329    3.4889    0.0000 H       1  UNL1        0.0789
     68 H           4.0170    3.2678    0.0000 H       1  UNL1        0.0385
     69 H           3.6158    2.5790    0.0000 H       1  UNL1        0.0385
     70 H           6.5023    4.3656    0.0000 H       1  UNL1        0.0659
     71 H           3.6964    4.3764    0.0000 H       1  UNL1        0.0623
     72 H           4.1838   -0.9669    0.0000 H       1  UNL1        0.2922
     73 H           3.7026    5.9964    0.0000 H       1  UNL1        0.0655
     74 H           6.8408    6.7943    0.0000 H       1  UNL1        0.2923
     75 H           4.5582    8.2200    0.0000 H       1  UNL1        0.0660
     76 H           3.7104    7.9964    0.0000 H       1  UNL1        0.0660
     77 H           3.9340    7.1486    0.0000 H       1  UNL1        0.0660
@<TRIPOS>BOND
     1     1    16    1
     2     1    24    1
     3    21     2    1
     4     2    25    1
     5     3    21    1
     6     3    26    1
     7    17     4    1
     8     4    59    1
     9    24     5    1
    10     5    28    1
    11    18     6    1
    12     6    60    1
    13    19     7    1
    14     7    61    1
    15    20     8    1
    16     8    62    1
    17    22     9    1
    18     9    63    1
    19    23    10    1
    20    10    64    1
    21    11    30    1
    22    11    33    1
    23    12    35    1
    24    12    72    1
    25    13    36    2
    26    14    42    1
    27    14    43    1
    28    15    40    1
    29    15    74    1
    30    16    17    1
    31    16    25    1
    32    16    44    1
    33    17    18    1
    34    17    45    1
    35    18    19    1
    36    18    46    1
    37    19    24    1
    38    19    47    1
    39    20    21    1
    40    20    22    1
    41    20    48    1
    42    21    49    1
    43    22    23    1
    44    22    50    1
    45    23    26    1
    46    23    51    1
    47    24    52    1
    48    25    53    1
    49    25    54    1
    50    26    27    1
    51    26    55    1
    52    27    56    1
    53    27    57    1
    54    27    58    1
    55    28    29   ar
    56    28    31   ar
    57    29    30   ar
    58    29    65    1
    59    30    32   ar
    60    31    35   ar
    61    31    66    1
    62    32    35   ar
    63    32    36    1
    64    33    34    1
    65    33    37    1
    66    33    67    1
    67    34    36    1
    68    34    68    1
    69    34    69    1
    70    37    38   ar
    71    37    39   ar
    72    38    40   ar
    73    38    70    1
    74    39    41   ar
    75    39    71    1
    76    40    42   ar
    77    41    42   ar
    78    41    73    1
    79    43    75    1
    80    43    76    1
    81    43    77    1
