@<TRIPOS>MOLECULE
IMPHY016206
 48 47 0 0 0
SMALL
GASTEIGER

@<TRIPOS>ATOM
      1 O           3.7320    0.7500    0.0000 O.3     1  UNL1       -0.4648
      2 O           2.8660   -0.7500    0.0000 O.2     1  UNL1       -0.2512
      3 C           8.9282    0.7500    0.0000 C.3     1  UNL1       -0.0531
      4 C           9.7942    0.2500    0.0000 C.3     1  UNL1       -0.0531
      5 C           8.0622    0.2500    0.0000 C.3     1  UNL1       -0.0531
      6 C          10.6603    0.7500    0.0000 C.3     1  UNL1       -0.0531
      7 C          11.5263    0.2500    0.0000 C.3     1  UNL1       -0.0530
      8 C           7.1962    0.7500    0.0000 C.3     1  UNL1       -0.0530
      9 C          12.3923    0.7500    0.0000 C.3     1  UNL1       -0.0528
     10 C           6.3301    0.2500    0.0000 C.3     1  UNL1       -0.0500
     11 C          13.2583    0.2500    0.0000 C.3     1  UNL1       -0.0496
     12 C           5.4641    0.7500    0.0000 C.3     1  UNL1       -0.0185
     13 C          14.1244    0.7500    0.0000 C.3     1  UNL1       -0.0350
     14 C           4.5981    0.2500    0.0000 C.3     1  UNL1        0.0924
     15 C          14.9904    0.2500    0.0000 C.2     1  UNL1       -0.0911
     16 C          15.8564    0.7500    0.0000 C.2     1  UNL1       -0.1026
     17 C           2.8660    0.2500    0.0000 C.2     1  UNL1        0.3039
     18 C           2.0000    0.7500    0.0000 C.3     1  UNL1        0.0332
     19 H           9.3267    1.2250    0.0000 H       1  UNL1        0.0265
     20 H           8.5297    1.2250    0.0000 H       1  UNL1        0.0265
     21 H           9.3957   -0.2249    0.0000 H       1  UNL1        0.0265
     22 H          10.1928   -0.2249    0.0000 H       1  UNL1        0.0265
     23 H           7.6636   -0.2249    0.0000 H       1  UNL1        0.0265
     24 H           8.4607   -0.2249    0.0000 H       1  UNL1        0.0265
     25 H          11.0588    1.2250    0.0000 H       1  UNL1        0.0265
     26 H          10.2617    1.2250    0.0000 H       1  UNL1        0.0265
     27 H          11.1278   -0.2249    0.0000 H       1  UNL1        0.0265
     28 H          11.9248   -0.2249    0.0000 H       1  UNL1        0.0265
     29 H           7.5947    1.2250    0.0000 H       1  UNL1        0.0265
     30 H           6.7976    1.2250    0.0000 H       1  UNL1        0.0265
     31 H          12.7908    1.2250    0.0000 H       1  UNL1        0.0265
     32 H          11.9938    1.2250    0.0000 H       1  UNL1        0.0265
     33 H           5.9316   -0.2249    0.0000 H       1  UNL1        0.0266
     34 H           6.7287   -0.2249    0.0000 H       1  UNL1        0.0266
     35 H          12.8598   -0.2249    0.0000 H       1  UNL1        0.0268
     36 H          13.6569   -0.2249    0.0000 H       1  UNL1        0.0268
     37 H           5.8626    1.2250    0.0000 H       1  UNL1        0.0298
     38 H           5.0656    1.2250    0.0000 H       1  UNL1        0.0298
     39 H          14.5229    1.2250    0.0000 H       1  UNL1        0.0307
     40 H          13.7258    1.2250    0.0000 H       1  UNL1        0.0307
     41 H           4.1996   -0.2249    0.0000 H       1  UNL1        0.0697
     42 H           4.9966   -0.2249    0.0000 H       1  UNL1        0.0697
     43 H          14.9904   -0.3700    0.0000 H       1  UNL1        0.0566
     44 H          16.3933    0.4400    0.0000 H       1  UNL1        0.0532
     45 H          15.8564    1.3700    0.0000 H       1  UNL1        0.0532
     46 H           2.3100    1.2869    0.0000 H       1  UNL1        0.0342
     47 H           1.4631    1.0600    0.0000 H       1  UNL1        0.0342
     48 H           1.6900    0.2131    0.0000 H       1  UNL1        0.0342
@<TRIPOS>BOND
     1     1    14    1
     2     1    17    1
     3     2    17    2
     4     3     4    1
     5     3     5    1
     6     3    19    1
     7     3    20    1
     8     4     6    1
     9     4    21    1
    10     4    22    1
    11     5     8    1
    12     5    23    1
    13     5    24    1
    14     6     7    1
    15     6    25    1
    16     6    26    1
    17     7     9    1
    18     7    27    1
    19     7    28    1
    20     8    10    1
    21     8    29    1
    22     8    30    1
    23     9    11    1
    24     9    31    1
    25     9    32    1
    26    10    12    1
    27    10    33    1
    28    10    34    1
    29    11    13    1
    30    11    35    1
    31    11    36    1
    32    12    14    1
    33    12    37    1
    34    12    38    1
    35    13    15    1
    36    13    39    1
    37    13    40    1
    38    14    41    1
    39    14    42    1
    40    15    16    2
    41    15    43    1
    42    16    44    1
    43    16    45    1
    44    17    18    1
    45    18    46    1
    46    18    47    1
    47    18    48    1
