@<TRIPOS>MOLECULE
IMPHY015799
 40 39 0 0 0
SMALL
GASTEIGER

@<TRIPOS>ATOM
      1 O           7.1962    0.1340    0.0000 O.3     1  UNL1       -0.4542
      2 O           8.0622   -1.3660    0.0000 O.2     1  UNL1       -0.2508
      3 C           6.3301   -0.3660    0.0000 C.3     1  UNL1        0.1289
      4 C           5.4641   -0.8660    0.0000 C.3     1  UNL1       -0.0060
      5 C           4.5981   -0.3660    0.0000 C.3     1  UNL1       -0.0306
      6 C           6.8301   -1.2320    0.0000 C.3     1  UNL1       -0.0211
      7 C           5.8301    0.5000    0.0000 C.2     1  UNL1       -0.0483
      8 C           3.7320   -0.8660    0.0000 C.2     1  UNL1       -0.0851
      9 C           8.0622   -0.3660    0.0000 C.2     1  UNL1        0.3079
     10 C           8.9282    0.1340    0.0000 C.3     1  UNL1        0.0447
     11 C           2.8660   -0.3660    0.0000 C.2     1  UNL1       -0.0796
     12 C           9.7942   -0.3660    0.0000 C.3     1  UNL1       -0.0458
     13 C           6.3301    1.3660    0.0000 C.2     1  UNL1       -0.0989
     14 C           2.0000   -0.8660    0.0000 C.3     1  UNL1       -0.0440
     15 C           2.8660    0.6340    0.0000 C.3     1  UNL1       -0.0440
     16 C          10.6603    0.1340    0.0000 C.3     1  UNL1       -0.0648
     17 H           5.0656   -1.3410    0.0000 H       1  UNL1        0.0310
     18 H           5.8626   -1.3410    0.0000 H       1  UNL1        0.0310
     19 H           4.9966    0.1089    0.0000 H       1  UNL1        0.0309
     20 H           4.1996    0.1089    0.0000 H       1  UNL1        0.0309
     21 H           6.2932   -1.5420    0.0000 H       1  UNL1        0.0271
     22 H           7.1401   -1.7690    0.0000 H       1  UNL1        0.0271
     23 H           7.3671   -0.9221    0.0000 H       1  UNL1        0.0271
     24 H           5.2101    0.5000    0.0000 H       1  UNL1        0.0605
     25 H           3.7320   -1.4860    0.0000 H       1  UNL1        0.0571
     26 H           9.3267    0.6089    0.0000 H       1  UNL1        0.0377
     27 H           8.5297    0.6089    0.0000 H       1  UNL1        0.0377
     28 H           9.3957   -0.8410    0.0000 H       1  UNL1        0.0268
     29 H          10.1928   -0.8410    0.0000 H       1  UNL1        0.0268
     30 H           6.9501    1.3660    0.0000 H       1  UNL1        0.0533
     31 H           6.0201    1.9030    0.0000 H       1  UNL1        0.0533
     32 H           1.6900   -0.3291    0.0000 H       1  UNL1        0.0274
     33 H           1.4631   -1.1760    0.0000 H       1  UNL1        0.0274
     34 H           2.3100   -1.4030    0.0000 H       1  UNL1        0.0274
     35 H           3.4860    0.6340    0.0000 H       1  UNL1        0.0274
     36 H           2.8660    1.2540    0.0000 H       1  UNL1        0.0274
     37 H           2.2460    0.6340    0.0000 H       1  UNL1        0.0274
     38 H          10.9703   -0.4030    0.0000 H       1  UNL1        0.0230
     39 H          11.1972    0.4440    0.0000 H       1  UNL1        0.0230
     40 H          10.3503    0.6709    0.0000 H       1  UNL1        0.0230
@<TRIPOS>BOND
     1     1     3    1
     2     1     9    1
     3     2     9    2
     4     3     4    1
     5     3     6    1
     6     3     7    1
     7     4     5    1
     8     4    17    1
     9     4    18    1
    10     5     8    1
    11     5    19    1
    12     5    20    1
    13     6    21    1
    14     6    22    1
    15     6    23    1
    16     7    13    2
    17     7    24    1
    18     8    11    2
    19     8    25    1
    20     9    10    1
    21    10    12    1
    22    10    26    1
    23    10    27    1
    24    11    14    1
    25    11    15    1
    26    12    16    1
    27    12    28    1
    28    12    29    1
    29    13    30    1
    30    13    31    1
    31    14    32    1
    32    14    33    1
    33    14    34    1
    34    15    35    1
    35    15    36    1
    36    15    37    1
    37    16    38    1
    38    16    39    1
    39    16    40    1
