@<TRIPOS>MOLECULE
IMPHY004547
 38 40 0 0 0
SMALL
GASTEIGER

@<TRIPOS>ATOM
      1 O           4.4453   -2.9180    0.0000 O.2     1  UNL1       -0.3007
      2 C           4.0984   -0.2699    0.0000 C.3     1  UNL1       -0.0132
      3 C           3.1974    0.1640    0.0000 C.3     1  UNL1       -0.0133
      4 C           4.5984    1.9208    0.0000 C.3     1  UNL1       -0.0316
      5 C           3.9916    0.9069    0.0000 C.3     1  UNL1       -0.0426
      6 C           4.9994    0.1640    0.0000 C.3     1  UNL1       -0.0459
      7 C           3.5984    1.9208    0.0000 C.3     1  UNL1       -0.0110
      8 C           3.9624   -1.2546    0.0000 C.3     1  UNL1        0.0207
      9 C           5.2219    1.1389    0.0000 C.3     1  UNL1       -0.0489
     10 C           2.9749    1.1389    0.0000 C.2     1  UNL1       -0.0671
     11 C           2.5124   -0.5563    0.0000 C.3     1  UNL1       -0.0453
     12 C           2.9842   -1.4312    0.0000 C.3     1  UNL1       -0.0427
     13 C           3.6732    2.9180    0.0000 C.3     1  UNL1       -0.0558
     14 C           2.7722    2.4841    0.0000 C.3     1  UNL1       -0.0558
     15 C           4.6840   -1.9469    0.0000 C.2     1  UNL1        0.1239
     16 C           2.0000    1.3615    0.0000 C.2     1  UNL1       -0.0986
     17 H           2.5996    0.3282    0.0000 H       1  UNL1        0.0351
     18 H           4.8674    2.4794    0.0000 H       1  UNL1        0.0309
     19 H           3.5838    1.3739    0.0000 H       1  UNL1        0.0274
     20 H           3.4215    0.6631    0.0000 H       1  UNL1        0.0274
     21 H           5.1374   -0.4404    0.0000 H       1  UNL1        0.0271
     22 H           5.6194    0.1640    0.0000 H       1  UNL1        0.0271
     23 H           3.7833   -1.8482    0.0000 H       1  UNL1        0.0380
     24 H           5.7805    0.8699    0.0000 H       1  UNL1        0.0268
     25 H           5.6085    1.6237    0.0000 H       1  UNL1        0.0268
     26 H           2.1105   -0.0841    0.0000 H       1  UNL1        0.0271
     27 H           2.0006   -0.9063    0.0000 H       1  UNL1        0.0271
     28 H           2.4105   -1.6665    0.0000 H       1  UNL1        0.0272
     29 H           3.1579   -2.0264    0.0000 H       1  UNL1        0.0272
     30 H           4.2914    2.8716    0.0000 H       1  UNL1        0.0238
     31 H           3.7195    3.5362    0.0000 H       1  UNL1        0.0238
     32 H           3.0549    2.9643    0.0000 H       1  UNL1        0.0238
     33 H           3.1214    2.9964    0.0000 H       1  UNL1        0.0238
     34 H           2.2599    2.8334    0.0000 H       1  UNL1        0.0238
     35 H           2.4229    1.9718    0.0000 H       1  UNL1        0.0238
     36 H           5.2794   -1.7741    0.0000 H       1  UNL1        0.1029
     37 H           1.8172    1.9539    0.0000 H       1  UNL1        0.0535
     38 H           1.5783    0.9070    0.0000 H       1  UNL1        0.0535
@<TRIPOS>BOND
     1     1    15    2
     2     2     3    1
     3     2     5    1
     4     2     6    1
     5     2     8    1
     6     3    10    1
     7     3    11    1
     8     3    17    1
     9     4     5    1
    10     4     7    1
    11     4     9    1
    12     4    18    1
    13     5    19    1
    14     5    20    1
    15     6     9    1
    16     6    21    1
    17     6    22    1
    18     7    10    1
    19     7    13    1
    20     7    14    1
    21     8    12    1
    22     8    15    1
    23     8    23    1
    24     9    24    1
    25     9    25    1
    26    10    16    2
    27    11    12    1
    28    11    26    1
    29    11    27    1
    30    12    28    1
    31    12    29    1
    32    13    30    1
    33    13    31    1
    34    13    32    1
    35    14    33    1
    36    14    34    1
    37    14    35    1
    38    15    36    1
    39    16    37    1
    40    16    38    1
