@<TRIPOS>MOLECULE
IMPHY013853
 39 38 0 0 0
SMALL
GASTEIGER

@<TRIPOS>ATOM
      1 O          10.6603   -1.0950    0.0000 O.3     1  UNL1       -0.3806
      2 O          12.3923   -0.0950    0.0000 O.3     1  UNL1       -0.4788
      3 O          11.5263    1.4050    0.0000 O.2     1  UNL1       -0.2481
      4 C           7.1962   -0.0950    0.0000 C.3     1  UNL1       -0.0531
      5 C           6.3301    0.4050    0.0000 C.3     1  UNL1       -0.0531
      6 C           8.0622    0.4050    0.0000 C.3     1  UNL1       -0.0530
      7 C           5.4641   -0.0950    0.0000 C.3     1  UNL1       -0.0531
      8 C           4.5981    0.4050    0.0000 C.3     1  UNL1       -0.0531
      9 C           8.9282   -0.0950    0.0000 C.3     1  UNL1       -0.0502
     10 C           3.7320   -0.0950    0.0000 C.3     1  UNL1       -0.0533
     11 C           9.7942    0.4050    0.0000 C.3     1  UNL1       -0.0164
     12 C           2.8660    0.4050    0.0000 C.3     1  UNL1       -0.0559
     13 C          10.6603   -0.0950    0.0000 C.3     1  UNL1        0.1514
     14 C           2.0000   -0.0950    0.0000 C.3     1  UNL1       -0.0653
     15 C          11.5263    0.4050    0.0000 C.2     1  UNL1        0.3336
     16 H           6.7976   -0.5699    0.0000 H       1  UNL1        0.0265
     17 H           7.5947   -0.5699    0.0000 H       1  UNL1        0.0265
     18 H           6.7287    0.8799    0.0000 H       1  UNL1        0.0265
     19 H           5.9316    0.8799    0.0000 H       1  UNL1        0.0265
     20 H           8.4607    0.8799    0.0000 H       1  UNL1        0.0265
     21 H           7.6636    0.8799    0.0000 H       1  UNL1        0.0265
     22 H           5.0656   -0.5699    0.0000 H       1  UNL1        0.0265
     23 H           5.8626   -0.5699    0.0000 H       1  UNL1        0.0265
     24 H           8.5297   -0.5699    0.0000 H       1  UNL1        0.0266
     25 H           9.3267   -0.5699    0.0000 H       1  UNL1        0.0266
     26 H           4.9966    0.8799    0.0000 H       1  UNL1        0.0265
     27 H           4.1996    0.8799    0.0000 H       1  UNL1        0.0265
     28 H           3.3335   -0.5699    0.0000 H       1  UNL1        0.0265
     29 H           4.1306   -0.5699    0.0000 H       1  UNL1        0.0265
     30 H          10.1928    0.8799    0.0000 H       1  UNL1        0.0295
     31 H           9.3957    0.8799    0.0000 H       1  UNL1        0.0295
     32 H           3.2646    0.8799    0.0000 H       1  UNL1        0.0263
     33 H           2.4675    0.8799    0.0000 H       1  UNL1        0.0263
     34 H          11.1972   -0.4050    0.0000 H       1  UNL1        0.0710
     35 H           1.6900    0.4419    0.0000 H       1  UNL1        0.0230
     36 H           1.4631   -0.4050    0.0000 H       1  UNL1        0.0230
     37 H           2.3100   -0.6319    0.0000 H       1  UNL1        0.0230
     38 H          10.1233   -1.4050    0.0000 H       1  UNL1        0.2105
     39 H          12.9292    0.2150    0.0000 H       1  UNL1        0.2951
@<TRIPOS>BOND
     1     1    13    1
     2     1    38    1
     3     2    15    1
     4     2    39    1
     5     3    15    2
     6     4     5    1
     7     4     6    1
     8     4    16    1
     9     4    17    1
    10     5     7    1
    11     5    18    1
    12     5    19    1
    13     6     9    1
    14     6    20    1
    15     6    21    1
    16     7     8    1
    17     7    22    1
    18     7    23    1
    19     8    10    1
    20     8    26    1
    21     8    27    1
    22     9    11    1
    23     9    24    1
    24     9    25    1
    25    10    12    1
    26    10    28    1
    27    10    29    1
    28    11    13    1
    29    11    30    1
    30    11    31    1
    31    12    14    1
    32    12    32    1
    33    12    33    1
    34    13    15    1
    35    13    34    1
    36    14    35    1
    37    14    36    1
    38    14    37    1
