@<TRIPOS>MOLECULE
IMPHY015374
 23 23 0 0 0
SMALL
GASTEIGER

@<TRIPOS>ATOM
      1 O           2.8660    0.1550    0.0000 O.3     1  UNL1       -0.4944
      2 O           4.5981   -2.8450    0.0000 O.3     1  UNL1       -0.5066
      3 O           6.3301    3.1550    0.0000 O.2     1  UNL1       -0.2963
      4 C           4.5981    0.1550    0.0000 C.ar    1  UNL1        0.0170
      5 C           3.7320   -0.3450    0.0000 C.ar    1  UNL1        0.1307
      6 C           5.4641   -0.3450    0.0000 C.ar    1  UNL1       -0.0477
      7 C           3.7320   -1.3450    0.0000 C.ar    1  UNL1        0.0221
      8 C           4.5981   -1.8450    0.0000 C.ar    1  UNL1        0.1204
      9 C           5.4641   -1.3450    0.0000 C.ar    1  UNL1       -0.0194
     10 C           4.5981    1.1550    0.0000 C.2     1  UNL1       -0.0481
     11 C           5.4641    1.6550    0.0000 C.2     1  UNL1       -0.0218
     12 C           2.0000   -0.3450    0.0000 C.3     1  UNL1        0.0788
     13 C           5.4641    2.6550    0.0000 C.2     1  UNL1        0.1431
     14 H           6.0010   -0.0350    0.0000 H       1  UNL1        0.0626
     15 H           3.1951   -1.6550    0.0000 H       1  UNL1        0.0691
     16 H           6.0010   -1.6550    0.0000 H       1  UNL1        0.0654
     17 H           4.0611    1.4650    0.0000 H       1  UNL1        0.0626
     18 H           6.0010    1.3450    0.0000 H       1  UNL1        0.0650
     19 H           1.6900    0.1919    0.0000 H       1  UNL1        0.0660
     20 H           1.4631   -0.6550    0.0000 H       1  UNL1        0.0660
     21 H           2.3100   -0.8819    0.0000 H       1  UNL1        0.0660
     22 H           5.1350   -3.1550    0.0000 H       1  UNL1        0.2921
     23 H           4.9272    2.9650    0.0000 H       1  UNL1        0.1075
@<TRIPOS>BOND
     1     1     5    1
     2     1    12    1
     3     2     8    1
     4     2    22    1
     5     3    13    2
     6     4     5   ar
     7     4     6   ar
     8     4    10    1
     9     5     7   ar
    10     6     9   ar
    11     6    14    1
    12     7     8   ar
    13     7    15    1
    14     8     9   ar
    15     9    16    1
    16    10    11    2
    17    10    17    1
    18    11    13    1
    19    11    18    1
    20    12    19    1
    21    12    20    1
    22    12    21    1
    23    13    23    1
