@<TRIPOS>MOLECULE
IMPHY012855
 163 171 0 0 0
SMALL
GASTEIGER

@<TRIPOS>ATOM
      1 O          22.1241   -2.8968    0.0000 O.3     1  UNL1       -0.3849
      2 O          21.5601   -3.2253    0.0000 O.3     1  UNL1       -0.3851
      3 O          20.9028    0.5382    0.0000 O.3     1  UNL1       -0.4575
      4 O          22.4086    0.3004    0.0000 O.3     1  UNL1       -0.3803
      5 O          16.3933   -4.0315    0.0000 O.3     1  UNL1       -0.3477
      6 O          23.4208    0.9338    0.0000 O.2     1  UNL1       -0.2946
      7 O          19.1708    0.5316    0.0000 O.2     1  UNL1       -0.2456
      8 O          14.6613   -4.0315    0.0000 O.3     1  UNL1       -0.3456
      9 O          14.6613   -1.0315    0.0000 O.3     1  UNL1       -0.3770
     10 O          12.9292   -2.0315    0.0000 O.3     1  UNL1       -0.3429
     11 O          11.1972   -2.0315    0.0000 O.3     1  UNL1       -0.3456
     12 O          11.1972   -5.0315    0.0000 O.3     1  UNL1       -0.3770
     13 O           9.4651   -4.0315    0.0000 O.3     1  UNL1       -0.3429
     14 O           8.5991   -2.5315    0.0000 O.3     1  UNL1       -0.3456
     15 O           6.0010   -2.0315    0.0000 O.3     1  UNL1       -0.3429
     16 O           6.0010   -4.0315    0.0000 O.3     1  UNL1       -0.3770
     17 O           5.1350   -3.5315    0.0000 O.3     1  UNL1       -0.3456
     18 O           2.5369   -2.0315    0.0000 O.3     1  UNL1       -0.3770
     19 O           2.5369   -4.0315    0.0000 O.3     1  UNL1       -0.3867
     20 C          21.7785   -1.9584    0.0000 C.3     1  UNL1        0.1070
     21 C          21.7746   -0.9584    0.0000 C.3     1  UNL1        0.0718
     22 C          20.9144   -2.4618    0.0000 C.3     1  UNL1        0.1024
     23 C          20.0464   -1.9651    0.0000 C.3     1  UNL1        0.0033
     24 C          22.7197   -0.6500    0.0000 C.3     1  UNL1        0.1347
     25 C          20.9067   -0.4618    0.0000 C.3     1  UNL1        0.1149
     26 C          19.1384   -2.4754    0.0000 C.3     1  UNL1       -0.0053
     27 C          20.0426   -0.9651    0.0000 C.3     1  UNL1       -0.0086
     28 C          22.7259   -2.2595    0.0000 C.3     1  UNL1       -0.0175
     29 C          23.3064   -1.4525    0.0000 C.3     1  UNL1       -0.0136
     30 C          20.9345   -3.5032    0.0000 C.3     1  UNL1       -0.0025
     31 C          21.7708    0.0416    0.0000 C.3     1  UNL1       -0.0503
     32 C          19.1344   -3.5171    0.0000 C.2     1  UNL1       -0.0647
     33 C          18.2094   -1.9149    0.0000 C.3     1  UNL1       -0.0412
     34 C          20.0385   -4.0344    0.0000 C.2     1  UNL1       -0.0813
     35 C          19.1423   -1.4754    0.0000 C.3     1  UNL1       -0.0555
     36 C          23.5274   -0.0605    0.0000 C.2     1  UNL1        0.1623
     37 C          18.2011   -4.0704    0.0000 C.3     1  UNL1       -0.0047
     38 C          17.2635   -2.4465    0.0000 C.3     1  UNL1       -0.0254
     39 C          17.2594   -3.5315    0.0000 C.3     1  UNL1        0.0654
     40 C          24.4418   -0.4653    0.0000 C.3     1  UNL1       -0.0031
     41 C          20.0349    1.0349    0.0000 C.2     1  UNL1        0.3322
     42 C          15.5273   -3.5315    0.0000 C.3     1  UNL1        0.1624
     43 C          20.0310    2.0349    0.0000 C.2     1  UNL1        0.0231
     44 C          15.5273   -2.5315    0.0000 C.3     1  UNL1        0.0272
     45 C          14.6613   -2.0315    0.0000 C.3     1  UNL1        0.0915
     46 C          13.7953   -3.5315    0.0000 C.3     1  UNL1        0.0875
     47 C          13.7953   -2.5315    0.0000 C.3     1  UNL1        0.1137
     48 C          19.1631    2.5315    0.0000 C.2     1  UNL1       -0.0478
     49 C          12.9292   -4.0315    0.0000 C.3     1  UNL1       -0.0361
     50 C          19.1592    3.5315    0.0000 C.ar    1  UNL1       -0.0248
     51 C          12.0632   -2.5315    0.0000 C.3     1  UNL1        0.1626
     52 C          15.5273   -0.5315    0.0000 C.3     1  UNL1        0.0369
     53 C          20.0233    4.0349    0.0000 C.ar    1  UNL1       -0.0546
     54 C          18.2913    4.0282    0.0000 C.ar    1  UNL1       -0.0546
     55 C          12.0632   -3.5315    0.0000 C.3     1  UNL1        0.0272
     56 C          11.1972   -4.0315    0.0000 C.3     1  UNL1        0.0915
     57 C          20.0195    5.0349    0.0000 C.ar    1  UNL1       -0.0612
     58 C          18.2874    5.0282    0.0000 C.ar    1  UNL1       -0.0612
     59 C          10.3312   -2.5315    0.0000 C.3     1  UNL1        0.0875
     60 C          10.3312   -3.5315    0.0000 C.3     1  UNL1        0.1137
     61 C          19.1515    5.5315    0.0000 C.ar    1  UNL1       -0.0617
     62 C           9.4651   -2.0315    0.0000 C.3     1  UNL1       -0.0361
     63 C           8.5991   -3.5315    0.0000 C.3     1  UNL1        0.1626
     64 C          12.0632   -5.5315    0.0000 C.3     1  UNL1        0.0369
     65 C           7.7331   -4.0315    0.0000 C.3     1  UNL1        0.0272
     66 C           6.8671   -3.5315    0.0000 C.3     1  UNL1        0.0915
     67 C           6.8671   -2.5315    0.0000 C.3     1  UNL1        0.1137
     68 C           7.7331   -2.0315    0.0000 C.3     1  UNL1        0.0875
     69 C           7.7331   -1.0315    0.0000 C.3     1  UNL1       -0.0361
     70 C           5.1350   -2.5315    0.0000 C.3     1  UNL1        0.1626
     71 C           4.2690   -2.0315    0.0000 C.3     1  UNL1        0.0272
     72 C           3.4030   -2.5315    0.0000 C.3     1  UNL1        0.0911
     73 C           3.4030   -3.5315    0.0000 C.3     1  UNL1        0.1073
     74 C           4.2690   -4.0315    0.0000 C.3     1  UNL1        0.0871
     75 C           6.0010   -5.0315    0.0000 C.3     1  UNL1        0.0369
     76 C           4.2690   -5.0315    0.0000 C.3     1  UNL1       -0.0361
     77 C           2.5369   -1.0315    0.0000 C.3     1  UNL1        0.0369
     78 H          20.7809   -1.5372    0.0000 H       1  UNL1        0.0339
     79 H          20.3685   -0.1538    0.0000 H       1  UNL1        0.0741
     80 H          19.8283   -0.3833    0.0000 H       1  UNL1        0.0305
     81 H          19.4324   -1.0751    0.0000 H       1  UNL1        0.0305
     82 H          22.4770   -2.8274    0.0000 H       1  UNL1        0.0295
     83 H          23.2644   -2.5666    0.0000 H       1  UNL1        0.0295
     84 H          23.7688   -1.8655    0.0000 H       1  UNL1        0.0298
     85 H          23.7656   -1.0360    0.0000 H       1  UNL1        0.0298
     86 H          21.1547   -4.0827    0.0000 H       1  UNL1        0.0336
     87 H          21.5432   -3.3853    0.0000 H       1  UNL1        0.0336
     88 H          22.3908    0.0440    0.0000 H       1  UNL1        0.0238
     89 H          21.7684    0.6616    0.0000 H       1  UNL1        0.0238
     90 H          21.1508    0.0392    0.0000 H       1  UNL1        0.0238
     91 H          18.6158   -1.4467    0.0000 H       1  UNL1        0.0274
     92 H          17.8176   -1.4344    0.0000 H       1  UNL1        0.0274
     93 H          20.0432   -4.6544    0.0000 H       1  UNL1        0.0573
     94 H          22.7351   -3.0021    0.0000 H       1  UNL1        0.2103
     95 H          19.7622   -1.4778    0.0000 H       1  UNL1        0.0238
     96 H          19.1446   -0.8555    0.0000 H       1  UNL1        0.0238
     97 H          18.5223   -1.4731    0.0000 H       1  UNL1        0.0238
     98 H          21.6702   -3.8355    0.0000 H       1  UNL1        0.2103
     99 H          17.8056   -4.5479    0.0000 H       1  UNL1        0.0335
    100 H          18.6039   -4.5417    0.0000 H       1  UNL1        0.0335
    101 H          17.0567   -1.8620    0.0000 H       1  UNL1        0.0290
    102 H          16.6523   -2.5503    0.0000 H       1  UNL1        0.0290
    103 H          16.7230   -3.2205    0.0000 H       1  UNL1        0.0600
    104 H          22.8225    0.7620    0.0000 H       1  UNL1        0.2108
    105 H          24.1909   -1.0323    0.0000 H       1  UNL1        0.0307
    106 H          25.0088   -0.7163    0.0000 H       1  UNL1        0.0307
    107 H          24.6928    0.1016    0.0000 H       1  UNL1        0.0307
    108 H          15.5273   -4.1515    0.0000 H       1  UNL1        0.0910
    109 H          20.5668    2.3470    0.0000 H       1  UNL1        0.0689
    110 H          16.1379   -2.6392    0.0000 H       1  UNL1        0.0340
    111 H          15.7394   -1.9489    0.0000 H       1  UNL1        0.0340
    112 H          15.1982   -1.7215    0.0000 H       1  UNL1        0.0624
    113 H          13.7953   -4.1515    0.0000 H       1  UNL1        0.0621
    114 H          13.7953   -1.9115    0.0000 H       1  UNL1        0.0649
    115 H          18.6273    2.2195    0.0000 H       1  UNL1        0.0626
    116 H          12.6192   -3.4946    0.0000 H       1  UNL1        0.0255
    117 H          12.3923   -4.3415    0.0000 H       1  UNL1        0.0255
    118 H          13.2392   -4.5684    0.0000 H       1  UNL1        0.0255
    119 H          12.6002   -2.8415    0.0000 H       1  UNL1        0.0910
    120 H          15.8373   -1.0684    0.0000 H       1  UNL1        0.0524
    121 H          16.0643   -0.2215    0.0000 H       1  UNL1        0.0524
    122 H          15.2173    0.0054    0.0000 H       1  UNL1        0.0524
    123 H          20.5614    3.7269    0.0000 H       1  UNL1        0.0623
    124 H          17.7555    3.7161    0.0000 H       1  UNL1        0.0623
    125 H          12.2753   -4.1141    0.0000 H       1  UNL1        0.0340
    126 H          12.6738   -3.4239    0.0000 H       1  UNL1        0.0340
    127 H          11.7341   -4.3415    0.0000 H       1  UNL1        0.0624
    128 H          20.5552    5.3469    0.0000 H       1  UNL1        0.0618
    129 H          17.7493    5.3361    0.0000 H       1  UNL1        0.0618
    130 H          10.3312   -1.9115    0.0000 H       1  UNL1        0.0621
    131 H           9.7942   -3.2215    0.0000 H       1  UNL1        0.0649
    132 H          19.1491    6.1515    0.0000 H       1  UNL1        0.0618
    133 H           9.7751   -1.4946    0.0000 H       1  UNL1        0.0255
    134 H           8.9282   -1.7215    0.0000 H       1  UNL1        0.0255
    135 H           9.1551   -2.5684    0.0000 H       1  UNL1        0.0255
    136 H           8.5991   -4.1515    0.0000 H       1  UNL1        0.0910
    137 H          11.7532   -6.0684    0.0000 H       1  UNL1        0.0524
    138 H          12.6002   -5.8415    0.0000 H       1  UNL1        0.0524
    139 H          12.3732   -4.9946    0.0000 H       1  UNL1        0.0524
    140 H           7.3346   -4.5065    0.0000 H       1  UNL1        0.0340
    141 H           8.1316   -4.5065    0.0000 H       1  UNL1        0.0340
    142 H           6.3301   -3.2215    0.0000 H       1  UNL1        0.0624
    143 H           6.8671   -1.9115    0.0000 H       1  UNL1        0.0649
    144 H           8.2700   -1.7215    0.0000 H       1  UNL1        0.0621
    145 H           8.3531   -1.0315    0.0000 H       1  UNL1        0.0255
    146 H           7.7331   -0.4115    0.0000 H       1  UNL1        0.0255
    147 H           7.1131   -1.0315    0.0000 H       1  UNL1        0.0255
    148 H           5.1350   -1.9115    0.0000 H       1  UNL1        0.0910
    149 H           4.6675   -1.5566    0.0000 H       1  UNL1        0.0340
    150 H           3.8705   -1.5566    0.0000 H       1  UNL1        0.0340
    151 H           3.4030   -1.9115    0.0000 H       1  UNL1        0.0624
    152 H           3.4030   -4.1515    0.0000 H       1  UNL1        0.0645
    153 H           4.8059   -4.3415    0.0000 H       1  UNL1        0.0621
    154 H           5.3810   -5.0315    0.0000 H       1  UNL1        0.0524
    155 H           6.0010   -5.6515    0.0000 H       1  UNL1        0.0524
    156 H           6.6210   -5.0315    0.0000 H       1  UNL1        0.0524
    157 H           3.6490   -5.0315    0.0000 H       1  UNL1        0.0255
    158 H           4.2690   -5.6515    0.0000 H       1  UNL1        0.0255
    159 H           4.8890   -5.0315    0.0000 H       1  UNL1        0.0255
    160 H           2.0000   -3.7215    0.0000 H       1  UNL1        0.2100
    161 H           3.1569   -1.0315    0.0000 H       1  UNL1        0.0524
    162 H           2.5369   -0.4115    0.0000 H       1  UNL1        0.0524
    163 H           1.9169   -1.0315    0.0000 H       1  UNL1        0.0524
@<TRIPOS>BOND
     1    20     1    1
     2     1    94    1
     3    22     2    1
     4     2    98    1
     5    25     3    1
     6     3    41    1
     7    24     4    1
     8     4   104    1
     9    39     5    1
    10     5    42    1
    11     6    36    2
    12     7    41    2
    13     8    42    1
    14     8    46    1
    15     9    45    1
    16     9    52    1
    17    10    47    1
    18    10    51    1
    19    11    51    1
    20    11    59    1
    21    12    56    1
    22    12    64    1
    23    13    60    1
    24    13    63    1
    25    14    63    1
    26    14    68    1
    27    15    67    1
    28    15    70    1
    29    16    66    1
    30    16    75    1
    31    17    70    1
    32    17    74    1
    33    18    72    1
    34    18    77    1
    35    19    73    1
    36    19   160    1
    37    20    21    1
    38    20    22    1
    39    20    28    1
    40    21    24    1
    41    21    25    1
    42    21    31    1
    43    22    23    1
    44    22    30    1
    45    23    26    1
    46    23    27    1
    47    23    78    1
    48    24    29    1
    49    24    36    1
    50    25    27    1
    51    25    79    1
    52    26    32    1
    53    26    33    1
    54    26    35    1
    55    27    80    1
    56    27    81    1
    57    28    29    1
    58    28    82    1
    59    28    83    1
    60    29    84    1
    61    29    85    1
    62    30    34    1
    63    30    86    1
    64    30    87    1
    65    31    88    1
    66    31    89    1
    67    31    90    1
    68    32    34    2
    69    32    37    1
    70    33    38    1
    71    33    91    1
    72    33    92    1
    73    34    93    1
    74    35    95    1
    75    35    96    1
    76    35    97    1
    77    36    40    1
    78    37    39    1
    79    37    99    1
    80    37   100    1
    81    38    39    1
    82    38   101    1
    83    38   102    1
    84    39   103    1
    85    40   105    1
    86    40   106    1
    87    40   107    1
    88    41    43    1
    89    42    44    1
    90    42   108    1
    91    43    48    2
    92    43   109    1
    93    44    45    1
    94    44   110    1
    95    44   111    1
    96    45    47    1
    97    45   112    1
    98    46    47    1
    99    46    49    1
   100    46   113    1
   101    47   114    1
   102    48    50    1
   103    48   115    1
   104    49   116    1
   105    49   117    1
   106    49   118    1
   107    50    53   ar
   108    50    54   ar
   109    51    55    1
   110    51   119    1
   111    52   120    1
   112    52   121    1
   113    52   122    1
   114    53    57   ar
   115    53   123    1
   116    54    58   ar
   117    54   124    1
   118    55    56    1
   119    55   125    1
   120    55   126    1
   121    56    60    1
   122    56   127    1
   123    57    61   ar
   124    57   128    1
   125    58    61   ar
   126    58   129    1
   127    59    60    1
   128    59    62    1
   129    59   130    1
   130    60   131    1
   131    61   132    1
   132    62   133    1
   133    62   134    1
   134    62   135    1
   135    63    65    1
   136    63   136    1
   137    64   137    1
   138    64   138    1
   139    64   139    1
   140    65    66    1
   141    65   140    1
   142    65   141    1
   143    66    67    1
   144    66   142    1
   145    67    68    1
   146    67   143    1
   147    68    69    1
   148    68   144    1
   149    69   145    1
   150    69   146    1
   151    69   147    1
   152    70    71    1
   153    70   148    1
   154    71    72    1
   155    71   149    1
   156    71   150    1
   157    72    73    1
   158    72   151    1
   159    73    74    1
   160    73   152    1
   161    74    76    1
   162    74   153    1
   163    75   154    1
   164    75   155    1
   165    75   156    1
   166    76   157    1
   167    76   158    1
   168    76   159    1
   169    77   161    1
   170    77   162    1
   171    77   163    1
