@<TRIPOS>MOLECULE
IMPHY006324
 37 36 0 0 0
SMALL
GASTEIGER

@<TRIPOS>ATOM
      1 O           7.1962    0.1340    0.0000 O.3     1  UNL1       -0.4542
      2 O           8.0622   -1.3660    0.0000 O.2     1  UNL1       -0.2508
      3 C           6.3301   -0.3660    0.0000 C.3     1  UNL1        0.1289
      4 C           5.4641   -0.8660    0.0000 C.3     1  UNL1       -0.0060
      5 C           4.5981   -0.3660    0.0000 C.3     1  UNL1       -0.0306
      6 C           6.8301   -1.2320    0.0000 C.3     1  UNL1       -0.0211
      7 C           5.8301    0.5000    0.0000 C.2     1  UNL1       -0.0483
      8 C           3.7320   -0.8660    0.0000 C.2     1  UNL1       -0.0851
      9 C           2.8660   -0.3660    0.0000 C.2     1  UNL1       -0.0796
     10 C           8.0622   -0.3660    0.0000 C.2     1  UNL1        0.3076
     11 C           8.9282    0.1340    0.0000 C.3     1  UNL1        0.0421
     12 C           6.3301    1.3660    0.0000 C.2     1  UNL1       -0.0989
     13 C           2.0000   -0.8660    0.0000 C.3     1  UNL1       -0.0440
     14 C           2.8660    0.6340    0.0000 C.3     1  UNL1       -0.0440
     15 C           9.7942   -0.3660    0.0000 C.3     1  UNL1       -0.0552
     16 H           5.0656   -1.3410    0.0000 H       1  UNL1        0.0310
     17 H           5.8626   -1.3410    0.0000 H       1  UNL1        0.0310
     18 H           4.9966    0.1089    0.0000 H       1  UNL1        0.0309
     19 H           4.1996    0.1089    0.0000 H       1  UNL1        0.0309
     20 H           6.2932   -1.5420    0.0000 H       1  UNL1        0.0271
     21 H           7.1401   -1.7690    0.0000 H       1  UNL1        0.0271
     22 H           7.3671   -0.9221    0.0000 H       1  UNL1        0.0271
     23 H           5.2101    0.5000    0.0000 H       1  UNL1        0.0605
     24 H           3.7320   -1.4860    0.0000 H       1  UNL1        0.0571
     25 H           9.3267    0.6089    0.0000 H       1  UNL1        0.0375
     26 H           8.5297    0.6089    0.0000 H       1  UNL1        0.0375
     27 H           6.9501    1.3660    0.0000 H       1  UNL1        0.0533
     28 H           6.0201    1.9030    0.0000 H       1  UNL1        0.0533
     29 H           1.6900   -0.3291    0.0000 H       1  UNL1        0.0274
     30 H           1.4631   -1.1760    0.0000 H       1  UNL1        0.0274
     31 H           2.3100   -1.4030    0.0000 H       1  UNL1        0.0274
     32 H           3.4860    0.6340    0.0000 H       1  UNL1        0.0274
     33 H           2.8660    1.2540    0.0000 H       1  UNL1        0.0274
     34 H           2.2460    0.6340    0.0000 H       1  UNL1        0.0274
     35 H           9.4842   -0.9030    0.0000 H       1  UNL1        0.0235
     36 H          10.3312   -0.6760    0.0000 H       1  UNL1        0.0235
     37 H          10.1042    0.1709    0.0000 H       1  UNL1        0.0235
@<TRIPOS>BOND
     1     1     3    1
     2     1    10    1
     3     2    10    2
     4     3     4    1
     5     3     6    1
     6     3     7    1
     7     4     5    1
     8     4    16    1
     9     4    17    1
    10     5     8    1
    11     5    18    1
    12     5    19    1
    13     6    20    1
    14     6    21    1
    15     6    22    1
    16     7    12    2
    17     7    23    1
    18     8     9    2
    19     8    24    1
    20     9    13    1
    21     9    14    1
    22    10    11    1
    23    11    15    1
    24    11    25    1
    25    11    26    1
    26    12    27    1
    27    12    28    1
    28    13    29    1
    29    13    30    1
    30    13    31    1
    31    14    32    1
    32    14    33    1
    33    14    34    1
    34    15    35    1
    35    15    36    1
    36    15    37    1
