@<TRIPOS>MOLECULE
IMPHY009603
 83 89 0 0 0
SMALL
GASTEIGER

@<TRIPOS>ATOM
      1 O           4.6016    4.4116    0.0000 O.3     1  UNL1       -0.4453
      2 O          10.5026   -1.3996    0.0000 O.3     1  UNL1       -0.3289
      3 O           6.3953   -0.7095    0.0000 O.3     1  UNL1       -0.4513
      4 O           5.8983    6.7053    0.0000 O.3     1  UNL1       -0.3588
      5 O           5.0322    6.2053    0.0000 O.3     1  UNL1       -0.3588
      6 O           6.8937    5.6886    0.0000 O.3     1  UNL1       -0.3454
      7 O          10.0840    2.2901    0.0000 O.3     1  UNL1       -0.4586
      8 O           6.6932   -2.9321    0.0000 O.3     1  UNL1       -0.4512
      9 O           8.7084   -4.5274    0.0000 O.3     1  UNL1       -0.3818
     10 O          11.0902   -3.5614    0.0000 O.3     1  UNL1       -0.4287
     11 O           8.6112    5.3637    0.0000 O.2     1  UNL1       -0.2855
     12 O           2.5604    3.5769    0.0000 O.3     1  UNL1       -0.5009
     13 O           9.8616    4.3109    0.0000 O.2     1  UNL1       -0.2453
     14 O           4.4623   -0.0799    0.0000 O.2     1  UNL1       -0.2449
     15 O           2.4017    1.5348    0.0000 O.3     1  UNL1       -0.5032
     16 O           7.3255   -4.5446    0.0000 O.2     1  UNL1       -0.2449
     17 O          12.1494   -2.1910    0.0000 O.2     1  UNL1       -0.2449
     18 O           3.1186   -3.4037    0.0000 O.3     1  UNL1       -0.5032
     19 O           4.3833   -6.6286    0.0000 O.3     1  UNL1       -0.5032
     20 O           2.8200   -5.3812    0.0000 O.3     1  UNL1       -0.5009
     21 O          13.3297   -6.3871    0.0000 O.3     1  UNL1       -0.5032
     22 O          15.4482   -3.6464    0.0000 O.3     1  UNL1       -0.5032
     23 O          15.1801   -5.6283    0.0000 O.3     1  UNL1       -0.5009
     24 C           6.3761    3.7568    0.0000 C.3     1  UNL1        0.0811
     25 C           5.8983    5.7053    0.0000 C.3     1  UNL1        0.2517
     26 C           6.6349    4.7227    0.0000 C.3     1  UNL1        0.3297
     27 C           7.8635   -1.0219    0.0000 C.3     1  UNL1        0.1719
     28 C           5.1550    2.8911    0.0000 C.ar    1  UNL1        0.0252
     29 C           9.2546   -0.4577    0.0000 C.3     1  UNL1        0.1371
     30 C           7.6241   -2.5670    0.0000 C.3     1  UNL1        0.1741
     31 C           7.6478    2.9622    0.0000 C.2     1  UNL1        0.0529
     32 C           8.8500   -3.5375    0.0000 C.3     1  UNL1        0.1576
     33 C           4.3260    3.4503    0.0000 C.ar    1  UNL1        0.1744
     34 C           8.0665    4.5251    0.0000 C.2     1  UNL1        0.2330
     35 C          10.2990   -2.9498    0.0000 C.3     1  UNL1        0.2352
     36 C           5.0984    1.8510    0.0000 C.ar    1  UNL1        0.0701
     37 C          10.0904    0.7891    0.0000 C.3     1  UNL1        0.1226
     38 C           8.4249    3.5915    0.0000 C.2     1  UNL1       -0.0016
     39 C           9.2374    3.5296    0.0000 C.2     1  UNL1        0.3361
     40 C           5.3544    0.3720    0.0000 C.2     1  UNL1        0.3402
     41 C           3.3829    3.0082    0.0000 C.ar    1  UNL1        0.2013
     42 C           4.1658    1.3872    0.0000 C.ar    1  UNL1       -0.0020
     43 C           3.3022    1.9697    0.0000 C.ar    1  UNL1        0.1628
     44 C           6.5438   -3.9209    0.0000 C.2     1  UNL1        0.3399
     45 C          12.0154   -3.1820    0.0000 C.2     1  UNL1        0.3417
     46 C           5.6129   -4.2860    0.0000 C.ar    1  UNL1        0.0661
     47 C          12.8066   -3.7936    0.0000 C.ar    1  UNL1        0.0662
     48 C           5.4636   -5.2748    0.0000 C.ar    1  UNL1       -0.0023
     49 C           4.8312   -3.6623    0.0000 C.ar    1  UNL1       -0.0023
     50 C          13.7318   -3.4142    0.0000 C.ar    1  UNL1       -0.0023
     51 C          12.6725   -4.7846    0.0000 C.ar    1  UNL1       -0.0023
     52 C           3.9002   -4.0274    0.0000 C.ar    1  UNL1        0.1628
     53 C           4.5326   -5.6399    0.0000 C.ar    1  UNL1        0.1628
     54 C           3.7509   -5.0162    0.0000 C.ar    1  UNL1        0.2006
     55 C          13.4637   -5.3961    0.0000 C.ar    1  UNL1        0.1628
     56 C          14.5230   -4.0258    0.0000 C.ar    1  UNL1        0.1628
     57 C          14.3890   -5.0168    0.0000 C.ar    1  UNL1        0.2006
     58 H           6.8784    4.1203    0.0000 H       1  UNL1        0.0456
     59 H           7.3531   -1.3739    0.0000 H       1  UNL1        0.0800
     60 H           9.8659   -0.3548    0.0000 H       1  UNL1        0.0670
     61 H           7.5327   -3.1802    0.0000 H       1  UNL1        0.0801
     62 H           9.3384   -3.9195    0.0000 H       1  UNL1        0.0695
     63 H          10.2147   -3.5641    0.0000 H       1  UNL1        0.1086
     64 H          10.4681    0.2973    0.0000 H       1  UNL1        0.0725
     65 H           9.4969    0.9682    0.0000 H       1  UNL1        0.0725
     66 H           9.0238    3.4310    0.0000 H       1  UNL1        0.0660
     67 H           4.4953    5.8953    0.0000 H       1  UNL1        0.2130
     68 H           6.4352    7.0153    0.0000 H       1  UNL1        0.2130
     69 H           4.1249    0.7686    0.0000 H       1  UNL1        0.0663
     70 H           7.4926    5.8491    0.0000 H       1  UNL1        0.2144
     71 H           9.1960   -4.9103    0.0000 H       1  UNL1        0.2102
     72 H           2.0000    3.3116    0.0000 H       1  UNL1        0.2924
     73 H           2.3561    0.9165    0.0000 H       1  UNL1        0.2923
     74 H           5.9482   -5.6615    0.0000 H       1  UNL1        0.0663
     75 H           4.9238   -3.0492    0.0000 H       1  UNL1        0.0663
     76 H          13.8149   -2.7998    0.0000 H       1  UNL1        0.0663
     77 H          12.0989   -5.0198    0.0000 H       1  UNL1        0.0663
     78 H           2.5414   -3.6300    0.0000 H       1  UNL1        0.2923
     79 H           4.8679   -7.0153    0.0000 H       1  UNL1        0.2923
     80 H           2.7274   -5.9943    0.0000 H       1  UNL1        0.2924
     81 H          12.7560   -6.6224    0.0000 H       1  UNL1        0.2923
     82 H          15.5313   -3.0320    0.0000 H       1  UNL1        0.2923
     83 H          15.7538   -5.3931    0.0000 H       1  UNL1        0.2924
@<TRIPOS>BOND
     1     1    26    1
     2     1    33    1
     3     2    29    1
     4     2    35    1
     5     3    27    1
     6     3    40    1
     7     4    25    1
     8     4    68    1
     9     5    25    1
    10     5    67    1
    11     6    26    1
    12     6    70    1
    13     7    37    1
    14     7    39    1
    15     8    30    1
    16     8    44    1
    17     9    32    1
    18     9    71    1
    19    10    35    1
    20    10    45    1
    21    11    34    2
    22    12    41    1
    23    12    72    1
    24    13    39    2
    25    14    40    2
    26    15    43    1
    27    15    73    1
    28    16    44    2
    29    17    45    2
    30    18    52    1
    31    18    78    1
    32    19    53    1
    33    19    79    1
    34    20    54    1
    35    20    80    1
    36    21    55    1
    37    21    81    1
    38    22    56    1
    39    22    82    1
    40    23    57    1
    41    23    83    1
    42    24    25    1
    43    24    28    1
    44    24    31    1
    45    24    58    1
    46    25    26    1
    47    26    34    1
    48    27    29    1
    49    27    30    1
    50    27    59    1
    51    28    33   ar
    52    28    36   ar
    53    29    37    1
    54    29    60    1
    55    30    32    1
    56    30    61    1
    57    31    38    2
    58    31    39    1
    59    32    35    1
    60    32    62    1
    61    33    41   ar
    62    34    38    1
    63    35    63    1
    64    36    40    1
    65    36    42   ar
    66    37    64    1
    67    37    65    1
    68    38    66    1
    69    41    43   ar
    70    42    43   ar
    71    42    69    1
    72    44    46    1
    73    45    47    1
    74    46    48   ar
    75    46    49   ar
    76    47    50   ar
    77    47    51   ar
    78    48    53   ar
    79    48    74    1
    80    49    52   ar
    81    49    75    1
    82    50    56   ar
    83    50    76    1
    84    51    55   ar
    85    51    77    1
    86    52    54   ar
    87    53    54   ar
    88    55    57   ar
    89    56    57   ar
