@<TRIPOS>MOLECULE
IMPHY010649
 34 38 0 0 0
SMALL
GASTEIGER

@<TRIPOS>ATOM
      1 C           2.3018   -7.9470    0.0000 C.3     1  UNL1        0.0273
      2 C           3.4475   -7.2283    0.0000 C.3     1  UNL1       -0.0169
      3 C           3.4475   -5.8847    0.0000 C.3     1  UNL1       -0.0041
      4 C           4.6140   -5.2181    0.0000 C.3     1  UNL1       -0.0187
      5 C           5.7910   -5.8847    0.0000 C.3     1  UNL1       -0.0002
      6 C           5.7910   -7.2283    0.0000 C.3     1  UNL1       -0.0003
      7 C           4.6140   -7.9470    0.0000 C.3     1  UNL1       -0.0039
      8 C           1.1561   -7.2283    0.0000 C.3     1  UNL1        0.1817
      9 C           1.1561   -5.8847    0.0000 C.3     1  UNL1        0.1821
     10 C           2.3018   -5.2181    0.0000 C.3     1  UNL1        0.0350
     11 C           4.6140   -3.8746    0.0000 C.3     1  UNL1        0.0004
     12 C           5.7910   -3.2288    0.0000 C.3     1  UNL1        0.0211
     13 C           6.9679   -3.8746    0.0000 C.2     1  UNL1       -0.0527
     14 C           6.9679   -5.2181    0.0000 C.3     1  UNL1        0.0143
     15 C           8.1241   -5.8847    0.0000 C.3     1  UNL1        0.0040
     16 C           9.2802   -5.2181    0.0000 C.3     1  UNL1        0.0040
     17 C           9.2802   -3.8746    0.0000 C.3     1  UNL1        0.0146
     18 C          10.4155   -3.2288    0.0000 C.3     1  UNL1        0.0037
     19 C          10.4155   -1.8852    0.0000 C.3     1  UNL1        0.0006
     20 C           9.2802   -1.2290    0.0000 C.3     1  UNL1        0.0037
     21 C           8.1241   -1.8852    0.0000 C.3     1  UNL1        0.0213
     22 C           8.1241   -3.2288    0.0000 C.2     1  UNL1       -0.0527
     23 C           1.6456   -9.0927    0.0000 C.3     1  UNL1        0.0023
     24 C           2.8122   -9.0198    0.0000 C.3     1  UNL1        0.0023
     25 C           3.4475   -4.5516    0.0000 C.3     1  UNL1       -0.0005
     26 C           5.7702   -4.5932    0.0000 C.3     1  UNL1        0.0000
     27 O           0.0000   -7.9470    0.0000 O.3     1  UNL1       -0.2204
     28 O           0.0000   -5.2286    0.0000 O.3     1  UNL1       -0.2204
     29 C           6.9992   -6.5409    0.0000 C.3     1  UNL1        0.0040
     30 C          10.4155   -4.5516    0.0000 C.3     1  UNL1        0.0040
     31 C           9.9364    0.0000    0.0000 C.3     1  UNL1        0.0003
     32 C           8.6136   -0.0104    0.0000 C.3     1  UNL1        0.0003
     33 H           3.4475   -8.4365    0.0000 H       1  UNL1        0.0319
     34 H           4.6245   -6.4472    0.0000 H       1  UNL1        0.0319
@<TRIPOS>BOND
     1     1     2    1
     2     1     8    1
     3     1    24    1
     4     1    23    1
     5     2     3    1
     6     2     7    1
     7     2    33    1
     8     3    10    1
     9     3     4    1
    10     3    25    1
    11     4     5    1
    12     4    11    1
    13     4    34    1
    14     5     6    1
    15     5    14    1
    16     5    26    1
    17     6     7    1
    18     8     9    1
    19     8    27    1
    20     9    10    1
    21     9    28    1
    22    11    12    1
    23    12    13    1
    24    13    22    2
    25    13    14    1
    26    14    15    1
    27    14    29    1
    28    15    16    1
    29    16    17    1
    30    17    22    1
    31    17    18    1
    32    17    30    1
    33    18    19    1
    34    19    20    1
    35    20    21    1
    36    20    32    1
    37    20    31    1
    38    21    22    1
