@<TRIPOS>MOLECULE
IMPHY004820
 38 41 0 0 0
SMALL
GASTEIGER

@<TRIPOS>ATOM
      1 O           5.5444   -0.6190    0.0000 O.3     1  UNL1       -0.4865
      2 O           2.0074    2.3871    0.0000 O.3     1  UNL1       -0.4910
      3 O           3.7095    3.4007    0.0000 O.3     1  UNL1       -0.4885
      4 O           5.4501    2.4549    0.0000 O.3     1  UNL1       -0.5029
      5 O           3.7095   -3.5972    0.0000 O.3     1  UNL1       -0.5066
      6 C           3.7444    0.4018    0.0000 C.ar    1  UNL1        0.0026
      7 C           2.8784    0.9018    0.0000 C.ar    1  UNL1        0.0067
      8 C           3.7444   -0.5982    0.0000 C.ar    1  UNL1        0.0281
      9 C           2.0123    0.4018    0.0000 C.3     1  UNL1       -0.0195
     10 C           2.0123   -0.5982    0.0000 C.3     1  UNL1       -0.0228
     11 C           2.8784   -1.0982    0.0000 C.ar    1  UNL1       -0.0324
     12 C           4.6383    0.9364    0.0000 C.ar    1  UNL1        0.0430
     13 C           4.6383   -1.1329    0.0000 C.ar    1  UNL1        0.1324
     14 C           2.8771    1.8935    0.0000 C.ar    1  UNL1        0.1689
     15 C           5.5444    0.4226    0.0000 C.3     1  UNL1        0.1187
     16 C           4.6005    1.9274    0.0000 C.ar    1  UNL1        0.1693
     17 C           3.7292    2.4009    0.0000 C.ar    1  UNL1        0.2040
     18 C           2.8771   -2.0899    0.0000 C.ar    1  UNL1       -0.0162
     19 C           4.6005   -2.1239    0.0000 C.ar    1  UNL1        0.0222
     20 C           3.7292   -2.5974    0.0000 C.ar    1  UNL1        0.1206
     21 C           2.0000    3.3870    0.0000 C.3     1  UNL1        0.0790
     22 C           4.5655    3.9177    0.0000 C.3     1  UNL1        0.0791
     23 H           1.8003    0.9844    0.0000 H       1  UNL1        0.0318
     24 H           1.4017    0.2941    0.0000 H       1  UNL1        0.0318
     25 H           1.4017   -0.4906    0.0000 H       1  UNL1        0.0317
     26 H           1.8003   -1.1808    0.0000 H       1  UNL1        0.0317
     27 H           6.1552    0.3165    0.0000 H       1  UNL1        0.0749
     28 H           5.7534    1.0063    0.0000 H       1  UNL1        0.0749
     29 H           2.3379   -2.3959    0.0000 H       1  UNL1        0.0657
     30 H           5.1273   -2.4509    0.0000 H       1  UNL1        0.0691
     31 H           5.4303    3.0745    0.0000 H       1  UNL1        0.2923
     32 H           2.6200    3.3916    0.0000 H       1  UNL1        0.0660
     33 H           1.9954    4.0070    0.0000 H       1  UNL1        0.0660
     34 H           1.3800    3.3824    0.0000 H       1  UNL1        0.0660
     35 H           4.2402   -3.9177    0.0000 H       1  UNL1        0.2921
     36 H           4.8860    3.3870    0.0000 H       1  UNL1        0.0660
     37 H           5.0962    4.2382    0.0000 H       1  UNL1        0.0660
     38 H           4.2450    4.4484    0.0000 H       1  UNL1        0.0660
@<TRIPOS>BOND
     1     1    13    1
     2     1    15    1
     3     2    14    1
     4     2    21    1
     5     3    17    1
     6     3    22    1
     7     4    16    1
     8     4    31    1
     9     5    20    1
    10     5    35    1
    11     6     7   ar
    12     6     8    1
    13     6    12   ar
    14     7     9    1
    15     7    14   ar
    16     8    11   ar
    17     8    13   ar
    18     9    10    1
    19     9    23    1
    20     9    24    1
    21    10    11    1
    22    10    25    1
    23    10    26    1
    24    11    18   ar
    25    12    15    1
    26    12    16   ar
    27    13    19   ar
    28    14    17   ar
    29    15    27    1
    30    15    28    1
    31    16    17   ar
    32    18    20   ar
    33    18    29    1
    34    19    20   ar
    35    19    30    1
    36    21    32    1
    37    21    33    1
    38    21    34    1
    39    22    36    1
    40    22    37    1
    41    22    38    1
