@<TRIPOS>MOLECULE
IMPHY008291
 53 57 0 0 0
SMALL
GASTEIGER

@<TRIPOS>ATOM
      1 O           4.5927    0.7338    0.0000 O.2     1  UNL1       -0.2874
      2 O           3.7595   -0.5117    0.0000 O.3     1  UNL1       -0.4910
      3 O           3.5386   -1.4635    0.0000 O.2     1  UNL1       -0.4886
      4 O           5.0170    3.3583    0.0000 O.3     1  UNL1       -0.5030
      5 O           2.3191    1.2142    0.0000 O.3     1  UNL1       -0.4488
      6 O           2.8372    2.8086    0.0000 O.3     1  UNL1       -0.4488
      7 O           4.7881   -3.0398    0.0000 O.2     1  UNL1       -0.4913
      8 C           6.6910    0.6751    0.0000 C.3     1  UNL1       -0.0044
      9 C           5.8819    0.0873    0.0000 C.3     1  UNL1        0.0927
     10 C           7.4937    0.0887    0.0000 C.3     1  UNL1       -0.0329
     11 C           6.3819    1.6261    0.0000 C.3     1  UNL1       -0.0165
     12 C           6.1916   -0.8573    0.0000 C.2     1  UNL1       -0.0471
     13 C           7.1857   -0.8565    0.0000 C.3     1  UNL1       -0.0269
     14 C           5.0729    0.6751    0.0000 C.ar    1  UNL1        0.0231
     15 C           5.3819    1.6261    0.0000 C.ar    1  UNL1        0.0065
     16 C           7.5000    1.2629    0.0000 C.3     1  UNL1       -0.0575
     17 C           4.8931   -0.2200    0.0000 C.2     1  UNL1        0.2160
     18 C           8.4453    0.3961    0.0000 C.3     1  UNL1       -0.0616
     19 C           5.9946   -1.8739    0.0000 C.2     1  UNL1       -0.0157
     20 C           4.0575    0.4428    0.0000 C.ar    1  UNL1        0.1702
     21 C           4.6970    2.4109    0.0000 C.ar    1  UNL1        0.1661
     22 C           4.5291   -1.3256    0.0000 C.2     1  UNL1        0.2055
     23 C           5.1568   -2.1102    0.0000 C.2     1  UNL1        0.1650
     24 C           3.3546    1.2115    0.0000 C.ar    1  UNL1        0.2115
     25 C           3.6765    2.2022    0.0000 C.ar    1  UNL1        0.2113
     26 C           2.0000    2.1993    0.0000 C.3     1  UNL1        0.2336
     27 C           2.7838   -0.7309    0.0000 C.3     1  UNL1        0.0790
     28 C           3.1628   -2.3902    0.0000 C.3     1  UNL1        0.0791
     29 C           5.4089   -3.8238    0.0000 C.3     1  UNL1        0.0790
     30 H           7.5920    0.7008    0.0000 H       1  UNL1        0.0307
     31 H           6.9884    1.7550    0.0000 H       1  UNL1        0.0320
     32 H           6.3171    2.2427    0.0000 H       1  UNL1        0.0320
     33 H           7.1210   -1.4731    0.0000 H       1  UNL1        0.0313
     34 H           7.7921   -0.9856    0.0000 H       1  UNL1        0.0313
     35 H           7.8644    0.7613    0.0000 H       1  UNL1        0.0236
     36 H           8.0016    1.6273    0.0000 H       1  UNL1        0.0236
     37 H           7.1356    1.7644    0.0000 H       1  UNL1        0.0236
     38 H           8.6358   -0.1939    0.0000 H       1  UNL1        0.0233
     39 H           9.0352    0.5866    0.0000 H       1  UNL1        0.0233
     40 H           8.2547    0.9860    0.0000 H       1  UNL1        0.0233
     41 H           6.4509   -2.2936    0.0000 H       1  UNL1        0.0655
     42 H           4.6075    3.8238    0.0000 H       1  UNL1        0.2923
     43 H           1.6898    2.7361    0.0000 H       1  UNL1        0.1166
     44 H           1.4335    1.9472    0.0000 H       1  UNL1        0.1166
     45 H           2.6479   -0.1260    0.0000 H       1  UNL1        0.0660
     46 H           2.1789   -0.8669    0.0000 H       1  UNL1        0.0660
     47 H           2.9198   -1.3359    0.0000 H       1  UNL1        0.0660
     48 H           2.5883   -2.1572    0.0000 H       1  UNL1        0.0660
     49 H           2.9299   -2.9648    0.0000 H       1  UNL1        0.0660
     50 H           3.7374   -2.6232    0.0000 H       1  UNL1        0.0660
     51 H           4.9228   -4.2087    0.0000 H       1  UNL1        0.0660
     52 H           5.7937   -4.3099    0.0000 H       1  UNL1        0.0660
     53 H           5.8950   -3.4390    0.0000 H       1  UNL1        0.0660
@<TRIPOS>BOND
     1     1    17    2
     2     2    20    1
     3     2    27    1
     4     3    22    1
     5     3    28    1
     6     4    21    1
     7     4    42    1
     8     5    24    1
     9     5    26    1
    10     6    25    1
    11     6    26    1
    12     7    23    1
    13     7    29    1
    14     8     9    1
    15     8    10    1
    16     8    11    1
    17     8    16    1
    18     9    12    1
    19     9    14    1
    20     9    17    1
    21    10    13    1
    22    10    18    1
    23    10    30    1
    24    11    15    1
    25    11    31    1
    26    11    32    1
    27    12    13    1
    28    12    19    2
    29    13    33    1
    30    13    34    1
    31    14    15   ar
    32    14    20   ar
    33    15    21   ar
    34    16    35    1
    35    16    36    1
    36    16    37    1
    37    17    22    1
    38    18    38    1
    39    18    39    1
    40    18    40    1
    41    19    23    1
    42    19    41    1
    43    20    24   ar
    44    21    25   ar
    45    22    23    2
    46    24    25   ar
    47    26    43    1
    48    26    44    1
    49    27    45    1
    50    27    46    1
    51    27    47    1
    52    28    48    1
    53    28    49    1
    54    28    50    1
    55    29    51    1
    56    29    52    1
    57    29    53    1
