@<TRIPOS>MOLECULE
IMPHY014619
 254 260 0 0 0
SMALL
GASTEIGER

@<TRIPOS>ATOM
      1 O          16.1644    5.6485    0.0000 O.3     1  UNL1       -0.3401
      2 O          17.0305    7.1485    0.0000 O.3     1  UNL1       -0.3405
      3 O           6.1513   -6.6696    0.0000 O.3     1  UNL1       -0.3378
      4 O          26.5567   -6.3515    0.0000 O.3     1  UNL1       -0.3378
      5 O           8.4217   -8.0281    0.0000 O.3     1  UNL1       -0.3405
      6 O          24.8247   -4.3515    0.0000 O.3     1  UNL1       -0.3405
      7 O          15.1383    2.8294    0.0000 O.3     1  UNL1       -0.3431
      8 O          27.4228   -4.8515    0.0000 O.3     1  UNL1       -0.3405
      9 O           4.8245   -7.7830    0.0000 O.3     1  UNL1       -0.3405
     10 O           8.1209   -6.3224    0.0000 O.3     1  UNL1       -0.3384
     11 O          26.5567   -4.3515    0.0000 O.3     1  UNL1       -0.3384
     12 O          18.7625    8.1485    0.0000 O.3     1  UNL1       -0.3451
     13 O           5.4672   -8.5490    0.0000 O.3     1  UNL1       -0.3864
     14 O          24.8247   -7.3515    0.0000 O.3     1  UNL1       -0.3864
     15 O          14.4324    6.6485    0.0000 O.3     1  UNL1       -0.3841
     16 O          16.1644    9.6485    0.0000 O.3     1  UNL1       -0.3865
     17 O          14.4324    8.6485    0.0000 O.3     1  UNL1       -0.3864
     18 O          14.1948    5.3012    0.0000 O.3     1  UNL1       -0.3866
     19 O          19.6285    9.6485    0.0000 O.3     1  UNL1       -0.3421
     20 O           6.7528  -10.0811    0.0000 O.3     1  UNL1       -0.3865
     21 O          23.0926   -6.3515    0.0000 O.3     1  UNL1       -0.3865
     22 O          17.4501    4.1165    0.0000 O.3     1  UNL1       -0.3841
     23 O          16.7660    2.2370    0.0000 O.3     1  UNL1       -0.3444
     24 O          28.2888   -7.3515    0.0000 O.3     1  UNL1       -0.3841
     25 O           4.8657   -5.1375    0.0000 O.3     1  UNL1       -0.3841
     26 O          30.0208   -6.3515    0.0000 O.3     1  UNL1       -0.3864
     27 O           2.8961   -5.4848    0.0000 O.3     1  UNL1       -0.3864
     28 O          30.0208   -4.3515    0.0000 O.3     1  UNL1       -0.3865
     29 O           2.2120   -7.3642    0.0000 O.3     1  UNL1       -0.3865
     30 O          20.4946    7.1485    0.0000 O.3     1  UNL1       -0.4502
     31 O          22.2266    8.1485    0.0000 O.3     1  UNL1       -0.3853
     32 O           8.3804  -10.6735    0.0000 O.3     1  UNL1       -0.3924
     33 O          23.0926   -3.3515    0.0000 O.3     1  UNL1       -0.3924
     34 O          22.2266   10.1485    0.0000 O.3     1  UNL1       -0.3865
     35 O          29.1548   -2.8515    0.0000 O.3     1  UNL1       -0.3924
     36 O           4.1404   -9.6624    0.0000 O.3     1  UNL1       -0.3924
     37 O          22.2266    7.1485    0.0000 O.2     1  UNL1       -0.2453
     38 O          21.3606    3.6485    0.0000 O.3     1  UNL1       -0.3874
     39 C           6.7941   -7.4357    0.0000 C.3     1  UNL1        0.1406
     40 C          25.6907   -5.8515    0.0000 C.3     1  UNL1        0.1406
     41 C          15.8224    4.7088    0.0000 C.3     1  UNL1        0.1205
     42 C          16.1644    6.6485    0.0000 C.3     1  UNL1        0.1884
     43 C           6.4521   -8.3754    0.0000 C.3     1  UNL1        0.1144
     44 C          24.8247   -6.3515    0.0000 C.3     1  UNL1        0.1144
     45 C          17.0305    8.1485    0.0000 C.3     1  UNL1        0.1134
     46 C          15.2984    7.1485    0.0000 C.3     1  UNL1        0.1341
     47 C          16.1644    8.6485    0.0000 C.3     1  UNL1        0.1119
     48 C          15.2984    8.1485    0.0000 C.3     1  UNL1        0.1141
     49 C          14.8375    4.5352    0.0000 C.3     1  UNL1        0.1098
     50 C           7.7789   -7.2621    0.0000 C.3     1  UNL1        0.1893
     51 C          25.6907   -4.8515    0.0000 C.3     1  UNL1        0.1893
     52 C           7.0948   -9.1415    0.0000 C.3     1  UNL1        0.1119
     53 C          23.9587   -5.8515    0.0000 C.3     1  UNL1        0.1119
     54 C          16.4652    3.9428    0.0000 C.3     1  UNL1        0.1345
     55 C           8.0797   -8.9678    0.0000 C.3     1  UNL1        0.1130
     56 C          23.9587   -4.8515    0.0000 C.3     1  UNL1        0.1130
     57 C          27.4228   -5.8515    0.0000 C.3     1  UNL1        0.1885
     58 C           5.1665   -6.8433    0.0000 C.3     1  UNL1        0.1885
     59 C          14.4955    3.5955    0.0000 C.3     1  UNL1        0.0873
     60 C          28.2888   -6.3515    0.0000 C.3     1  UNL1        0.1341
     61 C           4.5237   -6.0772    0.0000 C.3     1  UNL1        0.1341
     62 C          16.1232    3.0031    0.0000 C.3     1  UNL1        0.1882
     63 C          29.1548   -5.8515    0.0000 C.3     1  UNL1        0.1141
     64 C           3.5389   -6.2509    0.0000 C.3     1  UNL1        0.1141
     65 C          29.1548   -4.8515    0.0000 C.3     1  UNL1        0.1119
     66 C           3.1969   -7.1906    0.0000 C.3     1  UNL1        0.1119
     67 C          17.8965    8.6485    0.0000 C.3     1  UNL1        0.0796
     68 C          28.2888   -4.3515    0.0000 C.3     1  UNL1        0.1130
     69 C           3.8396   -7.9566    0.0000 C.3     1  UNL1        0.1130
     70 C          19.6285    8.6485    0.0000 C.3     1  UNL1        0.1992
     71 C          20.4946    8.1485    0.0000 C.3     1  UNL1        0.1819
     72 C           9.1057   -6.1487    0.0000 C.3     1  UNL1        0.0879
     73 C          26.5567   -3.3515    0.0000 C.3     1  UNL1        0.0879
     74 C          21.3606    8.6485    0.0000 C.3     1  UNL1        0.1250
     75 C           8.7224   -9.7339    0.0000 C.3     1  UNL1        0.0730
     76 C          23.0926   -4.3515    0.0000 C.3     1  UNL1        0.0730
     77 C          21.3606    9.6485    0.0000 C.3     1  UNL1        0.1105
     78 C          20.4946   10.1485    0.0000 C.3     1  UNL1        0.0874
     79 C          13.5107    3.4219    0.0000 C.3     1  UNL1       -0.0361
     80 C          28.2888   -3.3515    0.0000 C.3     1  UNL1        0.0730
     81 C           3.4976   -8.8963    0.0000 C.3     1  UNL1        0.0730
     82 C          10.0905   -5.9751    0.0000 C.3     1  UNL1       -0.0169
     83 C          26.5567   -2.3515    0.0000 C.3     1  UNL1       -0.0169
     84 C           8.9321   -5.1639    0.0000 C.3     1  UNL1       -0.0321
     85 C          25.5567   -3.3515    0.0000 C.3     1  UNL1       -0.0321
     86 C           9.2794   -7.1335    0.0000 C.2     1  UNL1       -0.0599
     87 C          27.5567   -3.3515    0.0000 C.2     1  UNL1       -0.0599
     88 C          20.4946   11.1485    0.0000 C.3     1  UNL1       -0.0361
     89 C          10.4326   -5.0354    0.0000 C.3     1  UNL1       -0.0316
     90 C          25.6907   -1.8515    0.0000 C.3     1  UNL1       -0.0316
     91 C          16.4240    1.2973    0.0000 C.3     1  UNL1        0.0716
     92 C          17.0668    0.5313    0.0000 C.2     1  UNL1       -0.0511
     93 C          11.4174   -4.8618    0.0000 C.2     1  UNL1       -0.0849
     94 C          25.6907   -0.8515    0.0000 C.2     1  UNL1       -0.0849
     95 C          21.3606    6.6485    0.0000 C.2     1  UNL1        0.3352
     96 C          10.2191   -7.4756    0.0000 C.2     1  UNL1       -0.1000
     97 C          28.0567   -2.4855    0.0000 C.2     1  UNL1       -0.1000
     98 C          11.7594   -3.9220    0.0000 C.2     1  UNL1       -0.0762
     99 C          24.8247   -0.3515    0.0000 C.2     1  UNL1       -0.0762
    100 C          16.7247   -0.4084    0.0000 C.2     1  UNL1       -0.0826
    101 C          18.0516    0.7050    0.0000 C.3     1  UNL1       -0.0416
    102 C          21.3606    5.6485    0.0000 C.2     1  UNL1        0.0320
    103 C          12.7442   -3.7484    0.0000 C.3     1  UNL1       -0.0286
    104 C          24.8247    0.6485    0.0000 C.3     1  UNL1       -0.0286
    105 C          15.7399   -0.5821    0.0000 C.3     1  UNL1       -0.0308
    106 C          11.1166   -3.1560    0.0000 C.3     1  UNL1       -0.0438
    107 C          23.9587   -0.8515    0.0000 C.3     1  UNL1       -0.0438
    108 C          13.0862   -2.8087    0.0000 C.3     1  UNL1       -0.0308
    109 C          15.3979   -1.5217    0.0000 C.3     1  UNL1       -0.0286
    110 C          22.2266    5.1485    0.0000 C.2     1  UNL1       -0.0459
    111 C          23.9587    1.1485    0.0000 C.3     1  UNL1       -0.0308
    112 C          20.4946    5.1485    0.0000 C.3     1  UNL1       -0.0332
    113 C          22.2266    4.1485    0.0000 C.3     1  UNL1        0.0777
    114 C          14.4131   -1.6954    0.0000 C.2     1  UNL1       -0.0762
    115 C          14.0710   -2.6351    0.0000 C.2     1  UNL1       -0.0847
    116 C          23.0926    3.6485    0.0000 C.3     1  UNL1       -0.0022
    117 C          23.9587    2.1485    0.0000 C.2     1  UNL1       -0.0846
    118 C          23.0926    2.6485    0.0000 C.2     1  UNL1       -0.0738
    119 C          13.7703   -0.9293    0.0000 C.3     1  UNL1       -0.0438
    120 C          22.2266    2.1485    0.0000 C.3     1  UNL1       -0.0437
    121 H           6.1835   -7.5434    0.0000 H       1  UNL1        0.0675
    122 H          25.6907   -6.4715    0.0000 H       1  UNL1        0.0675
    123 H          16.4330    4.8165    0.0000 H       1  UNL1        0.0651
    124 H          15.6275    6.3385    0.0000 H       1  UNL1        0.0938
    125 H           6.0535   -7.9004    0.0000 H       1  UNL1        0.0648
    126 H          24.2878   -6.6615    0.0000 H       1  UNL1        0.0648
    127 H          17.5674    7.8385    0.0000 H       1  UNL1        0.0647
    128 H          14.7615    7.4585    0.0000 H       1  UNL1        0.0671
    129 H          16.7014    8.9585    0.0000 H       1  UNL1        0.0647
    130 H          15.2984    8.7685    0.0000 H       1  UNL1        0.0648
    131 H          15.0496    5.1178    0.0000 H       1  UNL1        0.0646
    132 H           7.3804   -6.7871    0.0000 H       1  UNL1        0.0938
    133 H          25.6907   -4.2315    0.0000 H       1  UNL1        0.0938
    134 H           6.4843   -9.2491    0.0000 H       1  UNL1        0.0647
    135 H          23.4217   -5.5415    0.0000 H       1  UNL1        0.0647
    136 H          16.8638    3.4678    0.0000 H       1  UNL1        0.0671
    137 H           8.6902   -8.8601    0.0000 H       1  UNL1        0.0647
    138 H          23.9587   -4.2315    0.0000 H       1  UNL1        0.0647
    139 H          26.8858   -5.5415    0.0000 H       1  UNL1        0.0938
    140 H           5.3785   -6.2607    0.0000 H       1  UNL1        0.0938
    141 H          14.2835    3.0129    0.0000 H       1  UNL1        0.0621
    142 H          27.7519   -6.6615    0.0000 H       1  UNL1        0.0671
    143 H           4.1252   -5.6023    0.0000 H       1  UNL1        0.0671
    144 H          15.9111    2.4205    0.0000 H       1  UNL1        0.0937
    145 H          29.1548   -6.4715    0.0000 H       1  UNL1        0.0648
    146 H           2.9283   -6.3585    0.0000 H       1  UNL1        0.0648
    147 H          29.1548   -4.2315    0.0000 H       1  UNL1        0.0647
    148 H           2.9848   -7.7732    0.0000 H       1  UNL1        0.0647
    149 H          18.2950    9.1234    0.0000 H       1  UNL1        0.0587
    150 H          17.4980    9.1234    0.0000 H       1  UNL1        0.0587
    151 H          27.7519   -4.0415    0.0000 H       1  UNL1        0.0647
    152 H           4.2382   -8.4316    0.0000 H       1  UNL1        0.0647
    153 H          19.0916    8.9585    0.0000 H       1  UNL1        0.0949
    154 H          19.9576    7.8385    0.0000 H       1  UNL1        0.0813
    155 H          21.3606    8.0285    0.0000 H       1  UNL1        0.0659
    156 H           9.2594  -10.0439    0.0000 H       1  UNL1        0.0584
    157 H           9.1210   -9.2589    0.0000 H       1  UNL1        0.0584
    158 H          22.4821   -4.2438    0.0000 H       1  UNL1        0.0584
    159 H          22.8806   -4.9341    0.0000 H       1  UNL1        0.0584
    160 H          21.3606   10.2685    0.0000 H       1  UNL1        0.0646
    161 H          19.9576   10.4585    0.0000 H       1  UNL1        0.0621
    162 H          13.4031    4.0325    0.0000 H       1  UNL1        0.0255
    163 H          12.9001    3.3142    0.0000 H       1  UNL1        0.0255
    164 H          13.6184    2.8113    0.0000 H       1  UNL1        0.0255
    165 H          28.0767   -2.7689    0.0000 H       1  UNL1        0.0584
    166 H          27.6782   -3.4592    0.0000 H       1  UNL1        0.0584
    167 H           2.9607   -8.5863    0.0000 H       1  UNL1        0.0584
    168 H           3.0991   -9.3713    0.0000 H       1  UNL1        0.0584
    169 H           5.2552   -9.1316    0.0000 H       1  UNL1        0.2100
    170 H          24.2878   -7.6615    0.0000 H       1  UNL1        0.2100
    171 H          14.4324    6.0285    0.0000 H       1  UNL1        0.2101
    172 H          16.7014    9.9585    0.0000 H       1  UNL1        0.2100
    173 H          14.4324    9.2685    0.0000 H       1  UNL1        0.2100
    174 H          10.0905   -6.5951    0.0000 H       1  UNL1        0.0299
    175 H          10.7011   -6.0828    0.0000 H       1  UNL1        0.0299
    176 H          27.1673   -2.4592    0.0000 H       1  UNL1        0.0299
    177 H          26.7688   -1.7689    0.0000 H       1  UNL1        0.0299
    178 H          13.5842    5.1935    0.0000 H       1  UNL1        0.2100
    179 H           6.1422  -10.1888    0.0000 H       1  UNL1        0.2100
    180 H          22.5557   -6.0415    0.0000 H       1  UNL1        0.2100
    181 H          17.8486    3.6415    0.0000 H       1  UNL1        0.2101
    182 H          28.8257   -7.6615    0.0000 H       1  UNL1        0.2101
    183 H           4.4672   -4.6626    0.0000 H       1  UNL1        0.2101
    184 H           9.5426   -5.0562    0.0000 H       1  UNL1        0.0260
    185 H           8.8244   -4.5533    0.0000 H       1  UNL1        0.0260
    186 H           8.3215   -5.2716    0.0000 H       1  UNL1        0.0260
    187 H          25.5567   -2.7315    0.0000 H       1  UNL1        0.0260
    188 H          24.9367   -3.3515    0.0000 H       1  UNL1        0.0260
    189 H          25.5567   -3.9715    0.0000 H       1  UNL1        0.0260
    190 H          30.5578   -6.0415    0.0000 H       1  UNL1        0.2100
    191 H           2.2856   -5.5926    0.0000 H       1  UNL1        0.2100
    192 H          30.5578   -4.6615    0.0000 H       1  UNL1        0.2100
    193 H           2.0000   -7.9468    0.0000 H       1  UNL1        0.2100
    194 H           8.8044   -7.5321    0.0000 H       1  UNL1        0.0594
    195 H          27.8667   -3.8884    0.0000 H       1  UNL1        0.0594
    196 H          21.1146   11.1485    0.0000 H       1  UNL1        0.0255
    197 H          20.4946   11.7685    0.0000 H       1  UNL1        0.0255
    198 H          19.8746   11.1485    0.0000 H       1  UNL1        0.0255
    199 H          10.4326   -4.4154    0.0000 H       1  UNL1        0.0308
    200 H           9.8220   -4.9277    0.0000 H       1  UNL1        0.0308
    201 H          25.0801   -1.7438    0.0000 H       1  UNL1        0.0308
    202 H          25.4787   -2.4341    0.0000 H       1  UNL1        0.0308
    203 H          15.8870    1.6073    0.0000 H       1  UNL1        0.0608
    204 H          16.0254    0.8224    0.0000 H       1  UNL1        0.0608
    205 H          22.7635    8.4585    0.0000 H       1  UNL1        0.2101
    206 H           8.7790  -11.1485    0.0000 H       1  UNL1        0.2095
    207 H          22.5557   -3.0415    0.0000 H       1  UNL1        0.2095
    208 H          22.2266   10.7685    0.0000 H       1  UNL1        0.2100
    209 H          29.1548   -2.2315    0.0000 H       1  UNL1        0.2095
    210 H           3.9284  -10.2450    0.0000 H       1  UNL1        0.2095
    211 H          11.8159   -5.3367    0.0000 H       1  UNL1        0.0572
    212 H          26.2277   -0.5415    0.0000 H       1  UNL1        0.0572
    213 H          10.3267   -8.0862    0.0000 H       1  UNL1        0.0533
    214 H          10.6940   -7.0770    0.0000 H       1  UNL1        0.0533
    215 H          28.6767   -2.4855    0.0000 H       1  UNL1        0.0533
    216 H          27.7467   -1.9485    0.0000 H       1  UNL1        0.0533
    217 H          17.1233   -0.8833    0.0000 H       1  UNL1        0.0572
    218 H          18.1593    0.0944    0.0000 H       1  UNL1        0.0275
    219 H          18.6622    0.8126    0.0000 H       1  UNL1        0.0275
    220 H          17.9439    1.3155    0.0000 H       1  UNL1        0.0275
    221 H          12.7442   -4.3684    0.0000 H       1  UNL1        0.0313
    222 H          13.3548   -3.8561    0.0000 H       1  UNL1        0.0313
    223 H          25.4353    0.5408    0.0000 H       1  UNL1        0.0313
    224 H          25.0367    1.2311    0.0000 H       1  UNL1        0.0313
    225 H          15.7399    0.0379    0.0000 H       1  UNL1        0.0310
    226 H          15.1293   -0.4744    0.0000 H       1  UNL1        0.0310
    227 H          11.5915   -2.7575    0.0000 H       1  UNL1        0.0274
    228 H          10.7181   -2.6810    0.0000 H       1  UNL1        0.0274
    229 H          10.6416   -3.5545    0.0000 H       1  UNL1        0.0274
    230 H          23.6487   -0.3146    0.0000 H       1  UNL1        0.0274
    231 H          23.4217   -1.1615    0.0000 H       1  UNL1        0.0274
    232 H          24.2687   -1.3884    0.0000 H       1  UNL1        0.0274
    233 H          13.0862   -2.1887    0.0000 H       1  UNL1        0.0310
    234 H          12.4756   -2.7011    0.0000 H       1  UNL1        0.0310
    235 H          15.3979   -2.1417    0.0000 H       1  UNL1        0.0313
    236 H          16.0085   -1.6294    0.0000 H       1  UNL1        0.0313
    237 H          22.7635    5.4585    0.0000 H       1  UNL1        0.0602
    238 H          23.3481    1.2562    0.0000 H       1  UNL1        0.0310
    239 H          23.7466    0.5659    0.0000 H       1  UNL1        0.0310
    240 H          20.1846    5.6854    0.0000 H       1  UNL1        0.0280
    241 H          19.9576    4.8385    0.0000 H       1  UNL1        0.0280
    242 H          20.8046    4.6116    0.0000 H       1  UNL1        0.0280
    243 H          22.2266    3.5285    0.0000 H       1  UNL1        0.0641
    244 H          14.4696   -3.1100    0.0000 H       1  UNL1        0.0572
    245 H          23.7032    3.5408    0.0000 H       1  UNL1        0.0338
    246 H          23.3047    4.2311    0.0000 H       1  UNL1        0.0338
    247 H          24.4956    2.4585    0.0000 H       1  UNL1        0.0572
    248 H          14.2452   -0.5308    0.0000 H       1  UNL1        0.0274
    249 H          13.3717   -0.4544    0.0000 H       1  UNL1        0.0274
    250 H          13.2953   -1.3279    0.0000 H       1  UNL1        0.0274
    251 H          21.9166    2.6854    0.0000 H       1  UNL1        0.0274
    252 H          21.6897    1.8385    0.0000 H       1  UNL1        0.0274
    253 H          22.5366    1.6116    0.0000 H       1  UNL1        0.0274
    254 H          20.8237    3.9585    0.0000 H       1  UNL1        0.2102
@<TRIPOS>BOND
     1     1    41    1
     2     1    42    1
     3     2    42    1
     4     2    45    1
     5     3    39    1
     6     3    58    1
     7     4    40    1
     8     4    57    1
     9     5    50    1
    10     5    55    1
    11     6    51    1
    12     6    56    1
    13     7    59    1
    14     7    62    1
    15     8    57    1
    16     8    68    1
    17     9    58    1
    18     9    69    1
    19    10    50    1
    20    10    72    1
    21    11    51    1
    22    11    73    1
    23    12    67    1
    24    12    70    1
    25    13    43    1
    26    13   169    1
    27    14    44    1
    28    14   170    1
    29    15    46    1
    30    15   171    1
    31    16    47    1
    32    16   172    1
    33    17    48    1
    34    17   173    1
    35    18    49    1
    36    18   178    1
    37    19    70    1
    38    19    78    1
    39    20    52    1
    40    20   179    1
    41    21    53    1
    42    21   180    1
    43    22    54    1
    44    22   181    1
    45    23    62    1
    46    23    91    1
    47    24    60    1
    48    24   182    1
    49    25    61    1
    50    25   183    1
    51    26    63    1
    52    26   190    1
    53    27    64    1
    54    27   191    1
    55    28    65    1
    56    28   192    1
    57    29    66    1
    58    29   193    1
    59    30    71    1
    60    30    95    1
    61    31    74    1
    62    31   205    1
    63    32    75    1
    64    32   206    1
    65    33    76    1
    66    33   207    1
    67    34    77    1
    68    34   208    1
    69    35    80    1
    70    35   209    1
    71    36    81    1
    72    36   210    1
    73    37    95    2
    74    38   113    1
    75    38   254    1
    76    39    43    1
    77    39    50    1
    78    39   121    1
    79    40    44    1
    80    40    51    1
    81    40   122    1
    82    41    49    1
    83    41    54    1
    84    41   123    1
    85    42    46    1
    86    42   124    1
    87    43    52    1
    88    43   125    1
    89    44    53    1
    90    44   126    1
    91    45    47    1
    92    45    67    1
    93    45   127    1
    94    46    48    1
    95    46   128    1
    96    47    48    1
    97    47   129    1
    98    48   130    1
    99    49    59    1
   100    49   131    1
   101    50   132    1
   102    51   133    1
   103    52    55    1
   104    52   134    1
   105    53    56    1
   106    53   135    1
   107    54    62    1
   108    54   136    1
   109    55    75    1
   110    55   137    1
   111    56    76    1
   112    56   138    1
   113    57    60    1
   114    57   139    1
   115    58    61    1
   116    58   140    1
   117    59    79    1
   118    59   141    1
   119    60    63    1
   120    60   142    1
   121    61    64    1
   122    61   143    1
   123    62   144    1
   124    63    65    1
   125    63   145    1
   126    64    66    1
   127    64   146    1
   128    65    68    1
   129    65   147    1
   130    66    69    1
   131    66   148    1
   132    67   149    1
   133    67   150    1
   134    68    80    1
   135    68   151    1
   136    69    81    1
   137    69   152    1
   138    70    71    1
   139    70   153    1
   140    71    74    1
   141    71   154    1
   142    72    82    1
   143    72    84    1
   144    72    86    1
   145    73    83    1
   146    73    85    1
   147    73    87    1
   148    74    77    1
   149    74   155    1
   150    75   156    1
   151    75   157    1
   152    76   158    1
   153    76   159    1
   154    77    78    1
   155    77   160    1
   156    78    88    1
   157    78   161    1
   158    79   162    1
   159    79   163    1
   160    79   164    1
   161    80   165    1
   162    80   166    1
   163    81   167    1
   164    81   168    1
   165    82    89    1
   166    82   174    1
   167    82   175    1
   168    83    90    1
   169    83   176    1
   170    83   177    1
   171    84   184    1
   172    84   185    1
   173    84   186    1
   174    85   187    1
   175    85   188    1
   176    85   189    1
   177    86    96    2
   178    86   194    1
   179    87    97    2
   180    87   195    1
   181    88   196    1
   182    88   197    1
   183    88   198    1
   184    89    93    1
   185    89   199    1
   186    89   200    1
   187    90    94    1
   188    90   201    1
   189    90   202    1
   190    91    92    1
   191    91   203    1
   192    91   204    1
   193    92   100    2
   194    92   101    1
   195    93    98    2
   196    93   211    1
   197    94    99    2
   198    94   212    1
   199    95   102    1
   200    96   213    1
   201    96   214    1
   202    97   215    1
   203    97   216    1
   204    98   103    1
   205    98   106    1
   206    99   104    1
   207    99   107    1
   208   100   105    1
   209   100   217    1
   210   101   218    1
   211   101   219    1
   212   101   220    1
   213   102   110    2
   214   102   112    1
   215   103   108    1
   216   103   221    1
   217   103   222    1
   218   104   111    1
   219   104   223    1
   220   104   224    1
   221   105   109    1
   222   105   225    1
   223   105   226    1
   224   106   227    1
   225   106   228    1
   226   106   229    1
   227   107   230    1
   228   107   231    1
   229   107   232    1
   230   108   115    1
   231   108   233    1
   232   108   234    1
   233   109   114    1
   234   109   235    1
   235   109   236    1
   236   110   113    1
   237   110   237    1
   238   111   117    1
   239   111   238    1
   240   111   239    1
   241   112   240    1
   242   112   241    1
   243   112   242    1
   244   113   116    1
   245   113   243    1
   246   114   115    2
   247   114   119    1
   248   115   244    1
   249   116   118    1
   250   116   245    1
   251   116   246    1
   252   117   118    2
   253   117   247    1
   254   118   120    1
   255   119   248    1
   256   119   249    1
   257   119   250    1
   258   120   251    1
   259   120   252    1
   260   120   253    1
