@<TRIPOS>MOLECULE
IMPHY010030
 33 34 0 0 0
SMALL
GASTEIGER

@<TRIPOS>ATOM
      1 O           5.9814   -0.8249    0.0000 O.3     1  UNL1       -0.3657
      2 O           2.5000   -0.0849    0.0000 O.2     1  UNL1       -0.4674
      3 C           5.1724   -0.2371    0.0000 C.3     1  UNL1        0.0693
      4 C           6.7904   -0.2371    0.0000 C.3     1  UNL1        0.0850
      5 C           5.4814    0.7140    0.0000 C.3     1  UNL1       -0.0230
      6 C           6.4814    0.7140    0.0000 C.3     1  UNL1       -0.0180
      7 C           4.2213   -0.5461    0.0000 C.3     1  UNL1        0.0406
      8 C           7.7414    0.0719    0.0000 C.3     1  UNL1       -0.0322
      9 C           7.3782   -1.0461    0.0000 C.2     1  UNL1       -0.0600
     10 C           4.0134   -1.5243    0.0000 C.3     1  UNL1       -0.0531
     11 C           3.4782    0.1230    0.0000 C.ar    1  UNL1        0.1101
     12 C           3.5827    1.1175    0.0000 C.ar    1  UNL1       -0.0204
     13 C           8.3727   -0.9416    0.0000 C.2     1  UNL1       -0.1000
     14 C           2.6691    1.5243    0.0000 C.ar    1  UNL1       -0.0236
     15 C           2.0000    0.7811    0.0000 C.ar    1  UNL1        0.0921
     16 H           5.7620   -0.0455    0.0000 H       1  UNL1        0.0603
     17 H           5.5462    1.3306    0.0000 H       1  UNL1        0.0291
     18 H           4.8749    0.8429    0.0000 H       1  UNL1        0.0291
     19 H           7.0878    0.8429    0.0000 H       1  UNL1        0.0297
     20 H           6.4166    1.3306    0.0000 H       1  UNL1        0.0297
     21 H           4.6820   -0.9610    0.0000 H       1  UNL1        0.0402
     22 H           7.9330   -0.5177    0.0000 H       1  UNL1        0.0260
     23 H           8.3311    0.2635    0.0000 H       1  UNL1        0.0260
     24 H           7.5498    0.6616    0.0000 H       1  UNL1        0.0260
     25 H           7.1260   -1.6125    0.0000 H       1  UNL1        0.0594
     26 H           3.4069   -1.3954    0.0000 H       1  UNL1        0.0237
     27 H           3.8845   -2.1307    0.0000 H       1  UNL1        0.0237
     28 H           4.6198   -1.6532    0.0000 H       1  UNL1        0.0237
     29 H           4.1196    1.4275    0.0000 H       1  UNL1        0.0652
     30 H           8.7371   -1.4432    0.0000 H       1  UNL1        0.0533
     31 H           8.6249   -0.3752    0.0000 H       1  UNL1        0.0533
     32 H           2.5402    2.1307    0.0000 H       1  UNL1        0.0649
     33 H           1.3834    0.8459    0.0000 H       1  UNL1        0.1029
@<TRIPOS>BOND
     1     1     3    1
     2     1     4    1
     3     2    11   ar
     4     2    15   ar
     5     3     5    1
     6     3     7    1
     7     3    16    1
     8     4     6    1
     9     4     8    1
    10     4     9    1
    11     5     6    1
    12     5    17    1
    13     5    18    1
    14     6    19    1
    15     6    20    1
    16     7    10    1
    17     7    11    1
    18     7    21    1
    19     8    22    1
    20     8    23    1
    21     8    24    1
    22     9    13    2
    23     9    25    1
    24    10    26    1
    25    10    27    1
    26    10    28    1
    27    11    12   ar
    28    12    14   ar
    29    12    29    1
    30    13    30    1
    31    13    31    1
    32    14    15   ar
    33    14    32    1
    34    15    33    1
