@<TRIPOS>MOLECULE
IMPHY005922
 26 27 0 0 0
SMALL
GASTEIGER

@<TRIPOS>ATOM
      1 O          10.4114    0.3047    0.0000 O.3     1  UNL1       -0.4526
      2 O          10.4114   -1.3047    0.0000 O.3     1  UNL1       -0.4526
      3 O           2.5369    0.0000    0.0000 O.3     1  UNL1       -0.4775
      4 O           3.4030    1.5000    0.0000 O.2     1  UNL1       -0.2458
      5 C           9.4651    0.0000    0.0000 C.ar    1  UNL1        0.1668
      6 C           9.4651   -1.0000    0.0000 C.ar    1  UNL1        0.1663
      7 C           7.7331    0.0000    0.0000 C.ar    1  UNL1       -0.0213
      8 C           8.5991    0.5000    0.0000 C.ar    1  UNL1       -0.0090
      9 C           8.5991   -1.5000    0.0000 C.ar    1  UNL1       -0.0156
     10 C           7.7331   -1.0000    0.0000 C.ar    1  UNL1       -0.0509
     11 C          10.9950   -0.5000    0.0000 C.3     1  UNL1        0.2332
     12 C           6.8671    0.5000    0.0000 C.2     1  UNL1       -0.0545
     13 C           6.0010    0.0000    0.0000 C.2     1  UNL1       -0.0610
     14 C           5.1350    0.5000    0.0000 C.2     1  UNL1       -0.0550
     15 C           4.2690    0.0000    0.0000 C.2     1  UNL1        0.0223
     16 C           3.4030    0.5000    0.0000 C.2     1  UNL1        0.3295
     17 H           8.5991    1.1200    0.0000 H       1  UNL1        0.0661
     18 H           8.5991   -2.1200    0.0000 H       1  UNL1        0.0655
     19 H           7.1962   -1.3100    0.0000 H       1  UNL1        0.0625
     20 H          11.4558   -0.9147    0.0000 H       1  UNL1        0.1166
     21 H          11.4558   -0.0853    0.0000 H       1  UNL1        0.1166
     22 H           6.8671    1.1200    0.0000 H       1  UNL1        0.0623
     23 H           6.0010   -0.6200    0.0000 H       1  UNL1        0.0618
     24 H           5.1350    1.1200    0.0000 H       1  UNL1        0.0620
     25 H           4.2690   -0.6200    0.0000 H       1  UNL1        0.0689
     26 H           2.0000    0.3100    0.0000 H       1  UNL1        0.2954
@<TRIPOS>BOND
     1     1     5    1
     2     1    11    1
     3     2     6    1
     4     2    11    1
     5     3    16    1
     6     3    26    1
     7     4    16    2
     8     5     6   ar
     9     5     8   ar
    10     6     9   ar
    11     7     8   ar
    12     7    10   ar
    13     7    12    1
    14     8    17    1
    15     9    10   ar
    16     9    18    1
    17    10    19    1
    18    11    20    1
    19    11    21    1
    20    12    13    2
    21    12    22    1
    22    13    14    1
    23    13    23    1
    24    14    15    2
    25    14    24    1
    26    15    16    1
    27    15    25    1
