@<TRIPOS>MOLECULE
IMPHY009004
 61 66 0 0 0
SMALL
GASTEIGER

@<TRIPOS>ATOM
      1 O           6.0290    2.0010    0.0000 O.2     1  UNL1       -0.4537
      2 O           6.0010   -1.9643    0.0000 O.2     1  UNL1       -0.4544
      3 O           2.5369    2.0357    0.0000 O.3     1  UNL1       -0.5059
      4 O           4.2690    5.0357    0.0000 O.3     1  UNL1       -0.5058
      5 O           2.5369    1.0357    0.0000 O.3     1  UNL1       -0.5062
      6 O           6.0174    5.0702    0.0000 O.2     1  UNL1       -0.2869
      7 O           9.5033   -1.9612    0.0000 O.3     1  UNL1       -0.5058
      8 O           8.5991   -0.4643    0.0000 O.2     1  UNL1       -0.2869
      9 O           7.7452   -5.0336    0.0000 O.3     1  UNL1       -0.5065
     10 O          10.3914    0.5015    0.0000 O.3     1  UNL1       -0.4951
     11 C           4.2690    2.0357    0.0000 C.ar    1  UNL1        0.0702
     12 C           5.1350    2.5357    0.0000 C.ar    1  UNL1        0.1541
     13 C           4.2690    1.0357    0.0000 C.ar    1  UNL1        0.0313
     14 C           5.1350    3.5357    0.0000 C.ar    1  UNL1        0.1061
     15 C           5.1350   -0.4643    0.0000 C.ar    1  UNL1        0.0182
     16 C           3.4030    2.5357    0.0000 C.ar    1  UNL1        0.1317
     17 C           5.1350    0.5357    0.0000 C.ar    1  UNL1       -0.0396
     18 C           4.2690    4.0357    0.0000 C.ar    1  UNL1        0.1347
     19 C           3.4030    0.5357    0.0000 C.ar    1  UNL1        0.1248
     20 C           6.9350    2.5148    0.0000 C.ar    1  UNL1        0.1393
     21 C           6.0010   -0.9643    0.0000 C.ar    1  UNL1        0.1392
     22 C           6.0290    4.0703    0.0000 C.ar    1  UNL1        0.1966
     23 C           3.4030    3.5357    0.0000 C.ar    1  UNL1        0.0229
     24 C           4.2690   -0.9643    0.0000 C.ar    1  UNL1       -0.0476
     25 C           6.9350    3.5565    0.0000 C.ar    1  UNL1        0.0288
     26 C           3.4030   -0.4643    0.0000 C.ar    1  UNL1       -0.0189
     27 C           7.7991    2.0115    0.0000 C.ar    1  UNL1        0.0176
     28 C           7.7331   -1.9643    0.0000 C.ar    1  UNL1        0.1055
     29 C           6.8671   -2.4643    0.0000 C.ar    1  UNL1        0.1462
     30 C           6.8671   -0.4643    0.0000 C.ar    1  UNL1        0.0288
     31 C           7.7331   -0.9643    0.0000 C.ar    1  UNL1        0.1966
     32 C           8.6431   -2.4712    0.0000 C.ar    1  UNL1        0.1347
     33 C           6.8510   -3.5058    0.0000 C.ar    1  UNL1        0.0231
     34 C           8.6671    2.5082    0.0000 C.ar    1  UNL1       -0.0476
     35 C           7.7953    1.0115    0.0000 C.ar    1  UNL1       -0.0476
     36 C           7.7490   -4.0336    0.0000 C.ar    1  UNL1        0.1239
     37 C           8.6511   -3.5128    0.0000 C.ar    1  UNL1        0.0223
     38 C           9.5312    2.0048    0.0000 C.ar    1  UNL1       -0.0193
     39 C           8.6594    0.5082    0.0000 C.ar    1  UNL1       -0.0193
     40 C           9.5273    1.0048    0.0000 C.ar    1  UNL1        0.1201
     41 C          11.2593    0.9982    0.0000 C.3     1  UNL1        0.0788
     42 H           5.6720    0.8457    0.0000 H       1  UNL1        0.0632
     43 H           2.8660    3.8457    0.0000 H       1  UNL1        0.0691
     44 H           4.2690   -1.5843    0.0000 H       1  UNL1        0.0626
     45 H           7.4708    3.8685    0.0000 H       1  UNL1        0.0693
     46 H           2.8660   -0.7743    0.0000 H       1  UNL1        0.0654
     47 H           6.8671    0.1557    0.0000 H       1  UNL1        0.0693
     48 H           6.3105   -3.8096    0.0000 H       1  UNL1        0.0691
     49 H           8.6694    3.1282    0.0000 H       1  UNL1        0.0626
     50 H           7.2571    0.7036    0.0000 H       1  UNL1        0.0626
     51 H           2.0000    2.3457    0.0000 H       1  UNL1        0.2922
     52 H           9.1892   -3.8207    0.0000 H       1  UNL1        0.0691
     53 H           3.7320    5.3457    0.0000 H       1  UNL1        0.2922
     54 H           2.0000    0.7257    0.0000 H       1  UNL1        0.2922
     55 H          10.0693    2.3128    0.0000 H       1  UNL1        0.0654
     56 H           8.6570   -0.1118    0.0000 H       1  UNL1        0.0654
     57 H          10.0438   -2.2650    0.0000 H       1  UNL1        0.2922
     58 H           8.2809   -5.3457    0.0000 H       1  UNL1        0.2921
     59 H          11.5673    0.4600    0.0000 H       1  UNL1        0.0660
     60 H          11.7975    1.3061    0.0000 H       1  UNL1        0.0660
     61 H          10.9514    1.5363    0.0000 H       1  UNL1        0.0660
@<TRIPOS>BOND
     1     1    12   ar
     2     1    20   ar
     3     2    21   ar
     4     2    29   ar
     5     3    16    1
     6     3    51    1
     7     4    18    1
     8     4    53    1
     9     5    19    1
    10     5    54    1
    11     6    22    2
    12     7    32    1
    13     7    57    1
    14     8    31    2
    15     9    36    1
    16     9    58    1
    17    10    40    1
    18    10    41    1
    19    11    12   ar
    20    11    13    1
    21    11    16   ar
    22    12    14   ar
    23    13    17   ar
    24    13    19   ar
    25    14    18   ar
    26    14    22   ar
    27    15    17   ar
    28    15    21    1
    29    15    24   ar
    30    16    23   ar
    31    17    42    1
    32    18    23   ar
    33    19    26   ar
    34    20    25   ar
    35    20    27    1
    36    21    30   ar
    37    22    25   ar
    38    23    43    1
    39    24    26   ar
    40    24    44    1
    41    25    45    1
    42    26    46    1
    43    27    34   ar
    44    27    35   ar
    45    28    29   ar
    46    28    31   ar
    47    28    32   ar
    48    29    33   ar
    49    30    31   ar
    50    30    47    1
    51    32    37   ar
    52    33    36   ar
    53    33    48    1
    54    34    38   ar
    55    34    49    1
    56    35    39   ar
    57    35    50    1
    58    36    37   ar
    59    37    52    1
    60    38    40   ar
    61    38    55    1
    62    39    40   ar
    63    39    56    1
    64    41    59    1
    65    41    60    1
    66    41    61    1
