@<TRIPOS>MOLECULE
IMPHY000665
 24 29 0 0 0
SMALL
GASTEIGER

@<TRIPOS>ATOM
      1 C           3.4200    2.3360    0.0000 C.3     1  UNL1        0.0679
      2 C           2.5637    1.8410    0.0000 C.3     1  UNL1        0.0690
      3 C           3.4200    3.3225    0.0000 C.2     1  UNL1        0.0548
      4 C           4.3577    2.0307    0.0000 C.ar    1  UNL1       -0.0012
      5 C           4.2168    1.5375    0.0000 C.3     1  UNL1        0.0281
      6 C           1.7091    2.3360    0.0000 C.3     1  UNL1        0.0496
      7 N           2.5637    0.8546    0.0000 N.3     1  UNL1       -0.2711
      8 C           2.5637    3.8157    0.0000 C.2     1  UNL1        0.0650
      9 N           4.3577    3.6278    0.0000 N.pl3   1  UNL1       -0.2168
     10 C           4.9377    2.8293    0.0000 C.ar    1  UNL1        0.0665
     11 C           4.7588    1.1274    0.0000 C.ar    1  UNL1       -0.0026
     12 C           3.6531    0.5619    0.0000 C.3     1  UNL1        0.0729
     13 C           0.8546    1.8410    0.0000 C.3     1  UNL1        0.1452
     14 C           1.7091    3.3225    0.0000 C.3     1  UNL1        0.0378
     15 C           1.7091    0.3613    0.0000 C.3     1  UNL1        0.1045
     16 C           2.5637    4.8040    0.0000 C.2     1  UNL1        0.3382
     17 C           5.9205    2.7245    0.0000 C.ar    1  UNL1        0.0162
     18 C           5.7416    1.0244    0.0000 C.ar    1  UNL1       -0.0002
     19 C           0.8546    0.8546    0.0000 C.3     1  UNL1        0.1581
     20 O           0.0000    1.3478    0.0000 O.3     1  UNL1       -0.3522
     21 O           1.7091    5.2972    0.0000 O.3     1  UNL1       -0.4415
     22 O           3.4200    5.2972    0.0000 O.2     1  UNL1       -0.2452
     23 C           6.3234    1.8229    0.0000 C.ar    1  UNL1        0.0013
     24 C           1.7091    6.2836    0.0000 C.3     1  UNL1        0.2559
@<TRIPOS>BOND
     1     1     3    1
     2     1     4    1
     3     1     5    1
     4     2     1    1
     5     2     6    1
     6     2     7    1
     7     3     8    2
     8     3     9    1
     9     4    10   ar
    10     4    11   ar
    11     5    12    1
    12     6    13    1
    13     6    14    1
    14     7    12    1
    15     7    15    1
    16     8    14    1
    17     8    16    1
    18     9    10    1
    19    10    17   ar
    20    11    18   ar
    21    13    19    1
    22    13    20    1
    23    16    21    1
    24    16    22    2
    25    17    23   ar
    26    18    23   ar
    27    19    15    1
    28    19    20    1
    29    21    24    1
