@<TRIPOS>MOLECULE
IMPHY012795
 36 38 0 0 0
SMALL
GASTEIGER

@<TRIPOS>ATOM
      1 O           4.6660   -0.9031    0.0000 O.2     1  UNL1       -0.4507
      2 O           8.1962    1.1211    0.0000 O.3     1  UNL1       -0.4885
      3 O           8.1962   -0.9273    0.0000 O.3     1  UNL1       -0.4912
      4 O           6.4144    2.1315    0.0000 O.3     1  UNL1       -0.5027
      5 O           2.9176   -1.9377    0.0000 O.3     1  UNL1       -0.4914
      6 O           4.6660    2.0969    0.0000 O.2     1  UNL1       -0.2863
      7 C           5.5321    0.5969    0.0000 C.ar    1  UNL1        0.1097
      8 C           5.5321   -0.4031    0.0000 C.ar    1  UNL1        0.1467
      9 C           3.8000    0.5969    0.0000 C.ar    1  UNL1        0.0684
     10 C           3.8000   -0.4031    0.0000 C.ar    1  UNL1        0.1806
     11 C           4.6660    1.0969    0.0000 C.ar    1  UNL1        0.2040
     12 C           6.4260    1.1316    0.0000 C.ar    1  UNL1        0.1768
     13 C           6.4260   -0.9378    0.0000 C.ar    1  UNL1        0.0270
     14 C           7.3321    0.6177    0.0000 C.ar    1  UNL1        0.2043
     15 C           7.3321   -0.4239    0.0000 C.ar    1  UNL1        0.1687
     16 C           2.9061   -0.9378    0.0000 C.ar    1  UNL1        0.1628
     17 C           2.9061    1.1316    0.0000 C.ar    1  UNL1       -0.0471
     18 C           2.0000   -0.4239    0.0000 C.ar    1  UNL1       -0.0162
     19 C           2.0000    0.6177    0.0000 C.ar    1  UNL1       -0.0574
     20 C           9.0641    0.6244    0.0000 C.3     1  UNL1        0.0791
     21 C           8.1923   -1.9272    0.0000 C.3     1  UNL1        0.0790
     22 C           2.0574   -2.4477    0.0000 C.3     1  UNL1        0.0790
     23 H           6.4188   -1.5577    0.0000 H       1  UNL1        0.0692
     24 H           2.9132    1.7515    0.0000 H       1  UNL1        0.0626
     25 H           1.4643   -0.7360    0.0000 H       1  UNL1        0.0655
     26 H           1.4643    0.9298    0.0000 H       1  UNL1        0.0619
     27 H           6.9478    2.4477    0.0000 H       1  UNL1        0.2923
     28 H           8.7562    0.0863    0.0000 H       1  UNL1        0.0660
     29 H           9.6022    0.3165    0.0000 H       1  UNL1        0.0660
     30 H           9.3720    1.1625    0.0000 H       1  UNL1        0.0660
     31 H           7.5723   -1.9249    0.0000 H       1  UNL1        0.0660
     32 H           8.1899   -2.5472    0.0000 H       1  UNL1        0.0660
     33 H           8.8123   -1.9296    0.0000 H       1  UNL1        0.0660
     34 H           1.7413   -1.9144    0.0000 H       1  UNL1        0.0660
     35 H           1.5241   -2.7639    0.0000 H       1  UNL1        0.0660
     36 H           2.3736   -2.9810    0.0000 H       1  UNL1        0.0660
@<TRIPOS>BOND
     1     1     8   ar
     2     1    10   ar
     3     2    14    1
     4     2    20    1
     5     3    15    1
     6     3    21    1
     7     4    12    1
     8     4    27    1
     9     5    16    1
    10     5    22    1
    11     6    11    2
    12     7     8   ar
    13     7    11   ar
    14     7    12   ar
    15     8    13   ar
    16     9    10   ar
    17     9    11   ar
    18     9    17   ar
    19    10    16   ar
    20    12    14   ar
    21    13    15   ar
    22    13    23    1
    23    14    15   ar
    24    16    18   ar
    25    17    19   ar
    26    17    24    1
    27    18    19   ar
    28    18    25    1
    29    19    26    1
    30    20    28    1
    31    20    29    1
    32    20    30    1
    33    21    31    1
    34    21    32    1
    35    21    33    1
    36    22    34    1
    37    22    35    1
    38    22    36    1
