@<TRIPOS>MOLECULE
IMPHY003077
 38 39 0 0 0
SMALL
GASTEIGER

@<TRIPOS>ATOM
      1 O           8.1240    1.9102    0.0000 O.2     1  UNL1       -0.2915
      2 O           6.0010   -1.8450    0.0000 O.3     1  UNL1       -0.5062
      3 O           2.5369    1.1550    0.0000 O.3     1  UNL1       -0.3947
      4 C           8.3969    0.1550    0.0000 C.3     1  UNL1        0.0321
      5 C           7.8133   -0.6497    0.0000 C.3     1  UNL1       -0.0113
      6 C           6.8671   -0.3450    0.0000 C.ar    1  UNL1        0.0060
      7 C           6.8671    0.6550    0.0000 C.ar    1  UNL1        0.0278
      8 C           7.8133    0.9597    0.0000 C.2     1  UNL1        0.1697
      9 C           6.0010    1.1550    0.0000 C.ar    1  UNL1       -0.0360
     10 C           9.2059   -0.4328    0.0000 C.3     1  UNL1       -0.0524
     11 C           9.2059    0.7428    0.0000 C.3     1  UNL1       -0.0524
     12 C           6.0010   -0.8450    0.0000 C.ar    1  UNL1        0.1239
     13 C           5.1350    0.6550    0.0000 C.ar    1  UNL1       -0.0353
     14 C           5.1350   -0.3450    0.0000 C.ar    1  UNL1       -0.0052
     15 C           4.2690    1.1550    0.0000 C.3     1  UNL1       -0.0038
     16 C           6.0010    2.1550    0.0000 C.3     1  UNL1       -0.0388
     17 C           4.2690   -0.8450    0.0000 C.3     1  UNL1       -0.0360
     18 C           3.4030    0.6550    0.0000 C.3     1  UNL1        0.0482
     19 H           7.5622   -1.2166    0.0000 H       1  UNL1        0.0324
     20 H           8.3507   -0.9590    0.0000 H       1  UNL1        0.0324
     21 H           8.8415   -0.9344    0.0000 H       1  UNL1        0.0239
     22 H           9.7075   -0.7972    0.0000 H       1  UNL1        0.0239
     23 H           9.5703    0.0688    0.0000 H       1  UNL1        0.0239
     24 H           9.5703    0.2412    0.0000 H       1  UNL1        0.0239
     25 H           9.7075    1.1072    0.0000 H       1  UNL1        0.0239
     26 H           8.8415    1.2444    0.0000 H       1  UNL1        0.0239
     27 H           4.6675    1.6300    0.0000 H       1  UNL1        0.0336
     28 H           3.8705    1.6300    0.0000 H       1  UNL1        0.0336
     29 H           6.6210    2.1550    0.0000 H       1  UNL1        0.0278
     30 H           6.0010    2.7750    0.0000 H       1  UNL1        0.0278
     31 H           5.3810    2.1550    0.0000 H       1  UNL1        0.0278
     32 H           3.9590   -0.3081    0.0000 H       1  UNL1        0.0279
     33 H           3.7320   -1.1550    0.0000 H       1  UNL1        0.0279
     34 H           4.5790   -1.3819    0.0000 H       1  UNL1        0.0279
     35 H           3.0044    0.1801    0.0000 H       1  UNL1        0.0560
     36 H           3.8015    0.1801    0.0000 H       1  UNL1        0.0560
     37 H           5.4641   -2.1550    0.0000 H       1  UNL1        0.2922
     38 H           2.0000    0.8450    0.0000 H       1  UNL1        0.2094
@<TRIPOS>BOND
     1     1     8    2
     2     2    12    1
     3     2    37    1
     4     3    18    1
     5     3    38    1
     6     4     5    1
     7     4     8    1
     8     4    10    1
     9     4    11    1
    10     5     6    1
    11     5    19    1
    12     5    20    1
    13     6     7   ar
    14     6    12   ar
    15     7     8    1
    16     7     9   ar
    17     9    13   ar
    18     9    16    1
    19    10    21    1
    20    10    22    1
    21    10    23    1
    22    11    24    1
    23    11    25    1
    24    11    26    1
    25    12    14   ar
    26    13    14   ar
    27    13    15    1
    28    14    17    1
    29    15    18    1
    30    15    27    1
    31    15    28    1
    32    16    29    1
    33    16    30    1
    34    16    31    1
    35    17    32    1
    36    17    33    1
    37    17    34    1
    38    18    35    1
    39    18    36    1
