@<TRIPOS>MOLECULE
IMPHY014291
 48 50 0 0 0
SMALL
GASTEIGER

@<TRIPOS>ATOM
      1 O           3.7782    1.7000    0.0000 O.2     1  UNL1       -0.5030
      2 O           5.5442    2.7378    0.0000 O.2     1  UNL1       -0.2837
      3 C           3.8000   -0.3314    0.0000 C.3     1  UNL1        0.0188
      4 C           2.9061   -1.8661    0.0000 C.3     1  UNL1       -0.0128
      5 C           3.8000   -1.3314    0.0000 C.2     1  UNL1       -0.0535
      6 C           2.9061    0.2032    0.0000 C.3     1  UNL1       -0.0397
      7 C           2.0000   -1.3522    0.0000 C.3     1  UNL1       -0.0441
      8 C           2.0000   -0.3106    0.0000 C.3     1  UNL1       -0.0512
      9 C           4.6660    0.1686    0.0000 C.2     1  UNL1        0.0149
     10 C           3.8000    0.6686    0.0000 C.3     1  UNL1       -0.0516
     11 C           2.4161   -2.7378    0.0000 C.3     1  UNL1       -0.0561
     12 C           3.4160   -2.7263    0.0000 C.3     1  UNL1       -0.0561
     13 C           4.6660   -1.8314    0.0000 C.2     1  UNL1       -0.0606
     14 C           5.5321   -0.3314    0.0000 C.2     1  UNL1       -0.0171
     15 C           5.5321   -1.3314    0.0000 C.2     1  UNL1       -0.0542
     16 C           4.6500    1.2101    0.0000 C.2     1  UNL1        0.1685
     17 C           6.4421    0.1754    0.0000 C.2     1  UNL1       -0.0470
     18 C           6.4501    1.2170    0.0000 C.2     1  UNL1        0.0061
     19 C           5.5480    1.7378    0.0000 C.2     1  UNL1        0.2237
     20 C           7.3180    1.7137    0.0000 C.3     1  UNL1       -0.0178
     21 C           8.1821    1.2104    0.0000 C.3     1  UNL1       -0.0585
     22 C           7.3219    2.7137    0.0000 C.3     1  UNL1       -0.0585
     23 H           3.3107    0.6730    0.0000 H       1  UNL1        0.0277
     24 H           2.5124    0.6823    0.0000 H       1  UNL1        0.0277
     25 H           1.3891   -1.2461    0.0000 H       1  UNL1        0.0273
     26 H           1.7909   -1.9359    0.0000 H       1  UNL1        0.0273
     27 H           1.7909    0.2731    0.0000 H       1  UNL1        0.0266
     28 H           1.3891   -0.4167    0.0000 H       1  UNL1        0.0266
     29 H           4.4200    0.6686    0.0000 H       1  UNL1        0.0241
     30 H           3.8000    1.2886    0.0000 H       1  UNL1        0.0241
     31 H           3.1800    0.6686    0.0000 H       1  UNL1        0.0241
     32 H           1.8756   -2.4341    0.0000 H       1  UNL1        0.0238
     33 H           2.1123   -3.2783    0.0000 H       1  UNL1        0.0238
     34 H           2.9566   -3.0416    0.0000 H       1  UNL1        0.0238
     35 H           2.8827   -3.0425    0.0000 H       1  UNL1        0.0238
     36 H           3.7322   -3.2596    0.0000 H       1  UNL1        0.0238
     37 H           3.9494   -2.4101    0.0000 H       1  UNL1        0.0238
     38 H           4.6660   -2.4514    0.0000 H       1  UNL1        0.0618
     39 H           6.0690   -1.6414    0.0000 H       1  UNL1        0.0624
     40 H           6.9754   -0.1408    0.0000 H       1  UNL1        0.0628
     41 H           7.3156    1.0937    0.0000 H       1  UNL1        0.0345
     42 H           3.7711    2.3200    0.0000 H       1  UNL1        0.2923
     43 H           7.8701    0.6746    0.0000 H       1  UNL1        0.0235
     44 H           8.7179    0.8983    0.0000 H       1  UNL1        0.0235
     45 H           8.4942    1.7461    0.0000 H       1  UNL1        0.0235
     46 H           7.9419    2.7113    0.0000 H       1  UNL1        0.0235
     47 H           7.3243    3.3337    0.0000 H       1  UNL1        0.0235
     48 H           6.7019    2.7161    0.0000 H       1  UNL1        0.0235
@<TRIPOS>BOND
     1     1    16    1
     2     1    42    1
     3     2    19    2
     4     3     5    1
     5     3     6    1
     6     3     9    1
     7     3    10    1
     8     4     5    1
     9     4     7    1
    10     4    11    1
    11     4    12    1
    12     5    13    2
    13     6     8    1
    14     6    23    1
    15     6    24    1
    16     7     8    1
    17     7    25    1
    18     7    26    1
    19     8    27    1
    20     8    28    1
    21     9    14    1
    22     9    16    2
    23    10    29    1
    24    10    30    1
    25    10    31    1
    26    11    32    1
    27    11    33    1
    28    11    34    1
    29    12    35    1
    30    12    36    1
    31    12    37    1
    32    13    15    1
    33    13    38    1
    34    14    15    2
    35    14    17    1
    36    15    39    1
    37    16    19    1
    38    17    18    2
    39    17    40    1
    40    18    19    1
    41    18    20    1
    42    20    21    1
    43    20    22    1
    44    20    41    1
    45    21    43    1
    46    21    44    1
    47    21    45    1
    48    22    46    1
    49    22    47    1
    50    22    48    1
