@<TRIPOS>MOLECULE
IMPHY001314
 139 147 0 0 0
SMALL
GASTEIGER

@<TRIPOS>ATOM
      1 O          10.7346    7.9122    0.0000 O.3     1  UNL1       -0.4603
      2 O          13.0425    6.2023    0.0000 O.3     1  UNL1       -0.3906
      3 O          10.3312   -1.9765    0.0000 O.3     1  UNL1       -0.3449
      4 O          12.3720    7.4802    0.0000 O.2     1  UNL1       -0.2501
      5 O           8.5991   -1.9765    0.0000 O.3     1  UNL1       -0.3405
      6 O          10.3312   -3.9765    0.0000 O.3     1  UNL1       -0.3378
      7 O           8.5991   -4.9765    0.0000 O.3     1  UNL1       -0.3864
      8 O           6.8671   -3.9765    0.0000 O.3     1  UNL1       -0.3865
      9 O           6.0010   -2.4765    0.0000 O.3     1  UNL1       -0.3460
     10 O           9.4651   -5.4765    0.0000 O.3     1  UNL1       -0.3461
     11 O          12.0632   -4.9765    0.0000 O.3     1  UNL1       -0.3841
     12 O          12.0632   -6.9765    0.0000 O.3     1  UNL1       -0.3864
     13 O           4.2690   -2.4765    0.0000 O.3     1  UNL1       -0.3405
     14 O          10.3312   -7.9765    0.0000 O.3     1  UNL1       -0.3869
     15 O           6.0010   -0.4765    0.0000 O.3     1  UNL1       -0.3841
     16 O           4.2690    0.5235    0.0000 O.3     1  UNL1       -0.3864
     17 O           2.5369   -0.4765    0.0000 O.3     1  UNL1       -0.3865
     18 O           2.5369   -3.4765    0.0000 O.3     1  UNL1       -0.3924
     19 C          11.3088    3.0382    0.0000 C.3     1  UNL1       -0.0193
     20 C          10.3713    2.4921    0.0000 C.3     1  UNL1       -0.0257
     21 C          11.2963    4.1232    0.0000 C.3     1  UNL1       -0.0028
     22 C          10.3582    1.3620    0.0000 C.3     1  UNL1       -0.0250
     23 C          11.3348    0.7932    0.0000 C.3     1  UNL1       -0.0278
     24 C          11.2723    6.1924    0.0000 C.3     1  UNL1        0.1033
     25 C          10.4082    5.6890    0.0000 C.3     1  UNL1       -0.0005
     26 C          10.3962    4.6475    0.0000 C.2     1  UNL1       -0.0627
     27 C          12.2983    2.4921    0.0000 C.3     1  UNL1       -0.0463
     28 C          12.1963    4.6475    0.0000 C.3     1  UNL1       -0.0162
     29 C          12.3113    1.3620    0.0000 C.3     1  UNL1       -0.0486
     30 C          11.3484   -0.3839    0.0000 C.3     1  UNL1       -0.0052
     31 C           9.4337    3.0382    0.0000 C.3     1  UNL1       -0.0306
     32 C          12.1843    5.6890    0.0000 C.3     1  UNL1        0.0724
     33 C           9.3276    0.7932    0.0000 C.3     1  UNL1       -0.0447
     34 C          12.2929    3.2157    0.0000 C.3     1  UNL1       -0.0585
     35 C           9.4760    6.0508    0.0000 C.3     1  UNL1       -0.0368
     36 C          10.2376    6.7630    0.0000 C.3     1  UNL1        0.0036
     37 C           9.4463    4.1232    0.0000 C.2     1  UNL1       -0.0836
     38 C          10.3312   -0.9765    0.0000 C.3     1  UNL1        0.0672
     39 C           9.1775    7.0052    0.0000 C.3     1  UNL1        0.0028
     40 C           9.7377    7.8336    0.0000 C.3     1  UNL1        0.1093
     41 C          12.2804    3.9457    0.0000 C.3     1  UNL1       -0.0552
     42 C           9.4941    1.8654    0.0000 C.3     1  UNL1       -0.0590
     43 C           9.3139   -0.3839    0.0000 C.3     1  UNL1       -0.0255
     44 C          11.4176    7.1818    0.0000 C.2     1  UNL1        0.3168
     45 C          12.3484   -0.3762    0.0000 C.3     1  UNL1       -0.0572
     46 C          11.8550   -1.2461    0.0000 C.3     1  UNL1       -0.0572
     47 C           8.2481    6.6363    0.0000 C.3     1  UNL1       -0.0564
     48 C           8.3933    7.6257    0.0000 C.3     1  UNL1       -0.0564
     49 C           9.4651   -2.4765    0.0000 C.3     1  UNL1        0.1886
     50 C           9.4651   -3.4765    0.0000 C.3     1  UNL1        0.1406
     51 C           8.5991   -3.9765    0.0000 C.3     1  UNL1        0.1144
     52 C           7.7331   -2.4765    0.0000 C.3     1  UNL1        0.1134
     53 C           7.7331   -3.4765    0.0000 C.3     1  UNL1        0.1119
     54 C           6.8671   -1.9765    0.0000 C.3     1  UNL1        0.0796
     55 C          10.3312   -4.9765    0.0000 C.3     1  UNL1        0.1881
     56 C          11.1972   -5.4765    0.0000 C.3     1  UNL1        0.1341
     57 C          11.1972   -6.4765    0.0000 C.3     1  UNL1        0.1137
     58 C           9.4651   -6.4765    0.0000 C.3     1  UNL1        0.0792
     59 C           5.1350   -1.9765    0.0000 C.3     1  UNL1        0.1880
     60 C          10.3312   -6.9765    0.0000 C.3     1  UNL1        0.1069
     61 C           5.1350   -0.9765    0.0000 C.3     1  UNL1        0.1341
     62 C           4.2690   -0.4765    0.0000 C.3     1  UNL1        0.1141
     63 C           3.4030   -1.9765    0.0000 C.3     1  UNL1        0.1130
     64 C           3.4030   -0.9765    0.0000 C.3     1  UNL1        0.1119
     65 C           2.5369   -2.4765    0.0000 C.3     1  UNL1        0.0730
     66 H           9.6319    2.0728    0.0000 H       1  UNL1        0.0315
     67 H          12.0741    0.3739    0.0000 H       1  UNL1        0.0312
     68 H           9.6738    5.2612    0.0000 H       1  UNL1        0.0357
     69 H          12.9103    2.3931    0.0000 H       1  UNL1        0.0271
     70 H          12.5006    3.0782    0.0000 H       1  UNL1        0.0271
     71 H          12.4121    4.0662    0.0000 H       1  UNL1        0.0299
     72 H          12.8059    4.7606    0.0000 H       1  UNL1        0.0299
     73 H          12.5271    0.7808    0.0000 H       1  UNL1        0.0268
     74 H          12.9209    1.4752    0.0000 H       1  UNL1        0.0268
     75 H           8.8242    3.1514    0.0000 H       1  UNL1        0.0310
     76 H           9.2180    2.4570    0.0000 H       1  UNL1        0.0310
     77 H          12.1735    6.3089    0.0000 H       1  UNL1        0.0605
     78 H           9.1253    1.3793    0.0000 H       1  UNL1        0.0271
     79 H           8.7155    0.6942    0.0000 H       1  UNL1        0.0271
     80 H          12.4030    2.6055    0.0000 H       1  UNL1        0.0235
     81 H          12.9031    3.3257    0.0000 H       1  UNL1        0.0235
     82 H          12.1829    3.8259    0.0000 H       1  UNL1        0.0235
     83 H           8.8579    6.0021    0.0000 H       1  UNL1        0.0278
     84 H           9.3859    5.4374    0.0000 H       1  UNL1        0.0278
     85 H           9.6224    6.6868    0.0000 H       1  UNL1        0.0313
     86 H          10.1203    6.1542    0.0000 H       1  UNL1        0.0313
     87 H           8.9142    4.4414    0.0000 H       1  UNL1        0.0572
     88 H          10.8687   -1.2854    0.0000 H       1  UNL1        0.0602
     89 H           9.1571    8.4545    0.0000 H       1  UNL1        0.0739
     90 H          12.1704    3.3356    0.0000 H       1  UNL1        0.0238
     91 H          12.8906    3.8357    0.0000 H       1  UNL1        0.0238
     92 H          12.3904    4.5559    0.0000 H       1  UNL1        0.0238
     93 H           9.8062    2.4011    0.0000 H       1  UNL1        0.0235
     94 H           8.9584    2.1774    0.0000 H       1  UNL1        0.0235
     95 H           9.1820    1.3296    0.0000 H       1  UNL1        0.0235
     96 H           8.7044   -0.2708    0.0000 H       1  UNL1        0.0290
     97 H           9.0982   -0.9652    0.0000 H       1  UNL1        0.0290
     98 H          12.3531   -0.9962    0.0000 H       1  UNL1        0.0236
     99 H          12.9683   -0.3714    0.0000 H       1  UNL1        0.0236
    100 H          12.3436    0.2438    0.0000 H       1  UNL1        0.0236
    101 H          11.3205   -1.5602    0.0000 H       1  UNL1        0.0236
    102 H          12.1692   -1.7806    0.0000 H       1  UNL1        0.0236
    103 H          12.3896   -0.9320    0.0000 H       1  UNL1        0.0236
    104 H           8.7780    8.1119    0.0000 H       1  UNL1        0.0236
    105 H           7.9071    8.0104    0.0000 H       1  UNL1        0.0236
    106 H           8.0086    7.1394    0.0000 H       1  UNL1        0.0236
    107 H           8.0193    7.2125    0.0000 H       1  UNL1        0.0236
    108 H           7.6718    6.4075    0.0000 H       1  UNL1        0.0236
    109 H           8.4768    6.0600    0.0000 H       1  UNL1        0.0236
    110 H          13.5841    5.9006    0.0000 H       1  UNL1        0.2098
    111 H          10.0021   -2.7865    0.0000 H       1  UNL1        0.0938
    112 H           9.4651   -4.0965    0.0000 H       1  UNL1        0.0675
    113 H           8.0622   -4.2865    0.0000 H       1  UNL1        0.0648
    114 H           7.7331   -1.8565    0.0000 H       1  UNL1        0.0647
    115 H           7.1962   -3.1665    0.0000 H       1  UNL1        0.0647
    116 H           7.2656   -1.5015    0.0000 H       1  UNL1        0.0587
    117 H           6.4685   -1.5015    0.0000 H       1  UNL1        0.0587
    118 H           9.7942   -4.6665    0.0000 H       1  UNL1        0.0937
    119 H           8.0622   -5.2865    0.0000 H       1  UNL1        0.2100
    120 H           6.8671   -4.5965    0.0000 H       1  UNL1        0.2100
    121 H          11.7341   -5.7865    0.0000 H       1  UNL1        0.0671
    122 H          11.1972   -7.0965    0.0000 H       1  UNL1        0.0647
    123 H           8.8546   -6.3688    0.0000 H       1  UNL1        0.0587
    124 H           9.2531   -7.0591    0.0000 H       1  UNL1        0.0587
    125 H           5.1350   -2.5965    0.0000 H       1  UNL1        0.0937
    126 H           9.7942   -7.2865    0.0000 H       1  UNL1        0.0643
    127 H          12.6002   -5.2865    0.0000 H       1  UNL1        0.2101
    128 H           5.1350   -0.3565    0.0000 H       1  UNL1        0.0671
    129 H          12.0632   -7.5965    0.0000 H       1  UNL1        0.2100
    130 H           3.7320   -0.1665    0.0000 H       1  UNL1        0.0648
    131 H           9.7942   -8.2865    0.0000 H       1  UNL1        0.2100
    132 H           3.4030   -2.5965    0.0000 H       1  UNL1        0.0647
    133 H           2.8660   -1.2865    0.0000 H       1  UNL1        0.0647
    134 H           6.0010    0.1435    0.0000 H       1  UNL1        0.2101
    135 H           2.3249   -1.8939    0.0000 H       1  UNL1        0.0584
    136 H           1.9264   -2.5841    0.0000 H       1  UNL1        0.0584
    137 H           3.7320    0.8335    0.0000 H       1  UNL1        0.2100
    138 H           2.0000   -0.7865    0.0000 H       1  UNL1        0.2100
    139 H           2.0000   -3.7865    0.0000 H       1  UNL1        0.2095
@<TRIPOS>BOND
     1     1    40    1
     2     1    44    1
     3    32     2    1
     4     2   110    1
     5    38     3    1
     6    49     3    1
     7     4    44    2
     8     5    49    1
     9     5    52    1
    10    50     6    1
    11    55     6    1
    12    51     7    1
    13     7   119    1
    14    53     8    1
    15     8   120    1
    16     9    54    1
    17    59     9    1
    18    10    55    1
    19    10    58    1
    20    56    11    1
    21    11   127    1
    22    57    12    1
    23    12   129    1
    24    13    59    1
    25    13    63    1
    26    60    14    1
    27    14   131    1
    28    61    15    1
    29    15   134    1
    30    62    16    1
    31    16   137    1
    32    64    17    1
    33    17   138    1
    34    18    65    1
    35    18   139    1
    36    19    20    1
    37    19    21    1
    38    19    27    1
    39    19    34    1
    40    20    22    1
    41    20    31    1
    42    20    66    1
    43    21    26    1
    44    21    28    1
    45    21    41    1
    46    22    23    1
    47    22    33    1
    48    22    42    1
    49    23    29    1
    50    23    30    1
    51    23    67    1
    52    24    25    1
    53    24    32    1
    54    24    36    1
    55    24    44    1
    56    25    26    1
    57    25    35    1
    58    25    68    1
    59    26    37    2
    60    27    29    1
    61    27    69    1
    62    27    70    1
    63    28    32    1
    64    28    71    1
    65    28    72    1
    66    29    73    1
    67    29    74    1
    68    30    38    1
    69    30    45    1
    70    30    46    1
    71    31    37    1
    72    31    75    1
    73    31    76    1
    74    32    77    1
    75    33    43    1
    76    33    78    1
    77    33    79    1
    78    34    80    1
    79    34    81    1
    80    34    82    1
    81    35    39    1
    82    35    83    1
    83    35    84    1
    84    36    40    1
    85    36    85    1
    86    36    86    1
    87    37    87    1
    88    38    43    1
    89    38    88    1
    90    39    40    1
    91    39    47    1
    92    39    48    1
    93    40    89    1
    94    41    90    1
    95    41    91    1
    96    41    92    1
    97    42    93    1
    98    42    94    1
    99    42    95    1
   100    43    96    1
   101    43    97    1
   102    45    98    1
   103    45    99    1
   104    45   100    1
   105    46   101    1
   106    46   102    1
   107    46   103    1
   108    47   107    1
   109    47   108    1
   110    47   109    1
   111    48   104    1
   112    48   105    1
   113    48   106    1
   114    49    50    1
   115    49   111    1
   116    50    51    1
   117    50   112    1
   118    51    53    1
   119    51   113    1
   120    52    53    1
   121    52    54    1
   122    52   114    1
   123    53   115    1
   124    54   116    1
   125    54   117    1
   126    55    56    1
   127    55   118    1
   128    56    57    1
   129    56   121    1
   130    57    60    1
   131    57   122    1
   132    58    60    1
   133    58   123    1
   134    58   124    1
   135    59    61    1
   136    59   125    1
   137    60   126    1
   138    61    62    1
   139    61   128    1
   140    62    64    1
   141    62   130    1
   142    63    64    1
   143    63    65    1
   144    63   132    1
   145    64   133    1
   146    65   135    1
   147    65   136    1
