@<TRIPOS>MOLECULE
IMPHY017456
 68 67 0 0 0
SMALL
GASTEIGER

@<TRIPOS>ATOM
      1 O           3.7320    0.5600    0.0000 O.3     1  UNL1       -0.4668
      2 O           2.0000    0.5600    0.0000 O.2     1  UNL1       -0.2546
      3 C          13.2583    0.0600    0.0000 C.3     1  UNL1       -0.0531
      4 C          12.3923    0.5600    0.0000 C.3     1  UNL1       -0.0531
      5 C          14.1244    0.5600    0.0000 C.3     1  UNL1       -0.0531
      6 C          11.5263    0.0600    0.0000 C.3     1  UNL1       -0.0531
      7 C          14.9904    0.0600    0.0000 C.3     1  UNL1       -0.0531
      8 C          10.6603    0.5600    0.0000 C.3     1  UNL1       -0.0531
      9 C          15.8564    0.5600    0.0000 C.3     1  UNL1       -0.0531
     10 C           9.7942    0.0600    0.0000 C.3     1  UNL1       -0.0531
     11 C          16.7224    0.0600    0.0000 C.3     1  UNL1       -0.0531
     12 C           8.9282    0.5600    0.0000 C.3     1  UNL1       -0.0531
     13 C          17.5885    0.5600    0.0000 C.3     1  UNL1       -0.0531
     14 C           8.0622    0.0600    0.0000 C.3     1  UNL1       -0.0531
     15 C          18.4545    0.0600    0.0000 C.3     1  UNL1       -0.0531
     16 C           7.1962    0.5600    0.0000 C.3     1  UNL1       -0.0530
     17 C          19.3205    0.5600    0.0000 C.3     1  UNL1       -0.0531
     18 C           6.3301    0.0600    0.0000 C.3     1  UNL1       -0.0500
     19 C          20.1865    0.0600    0.0000 C.3     1  UNL1       -0.0533
     20 C           5.4641    0.5600    0.0000 C.3     1  UNL1       -0.0185
     21 C          21.0526    0.5600    0.0000 C.3     1  UNL1       -0.0559
     22 C           4.5981    0.0600    0.0000 C.3     1  UNL1        0.0922
     23 C          21.9186    0.0600    0.0000 C.3     1  UNL1       -0.0653
     24 C           2.8660    0.0600    0.0000 C.2     1  UNL1        0.2943
     25 H          12.8598   -0.4149    0.0000 H       1  UNL1        0.0265
     26 H          13.6569   -0.4149    0.0000 H       1  UNL1        0.0265
     27 H          12.7908    1.0350    0.0000 H       1  UNL1        0.0265
     28 H          11.9938    1.0350    0.0000 H       1  UNL1        0.0265
     29 H          14.5229    1.0350    0.0000 H       1  UNL1        0.0265
     30 H          13.7258    1.0350    0.0000 H       1  UNL1        0.0265
     31 H          11.1278   -0.4149    0.0000 H       1  UNL1        0.0265
     32 H          11.9248   -0.4149    0.0000 H       1  UNL1        0.0265
     33 H          14.5919   -0.4149    0.0000 H       1  UNL1        0.0265
     34 H          15.3889   -0.4149    0.0000 H       1  UNL1        0.0265
     35 H          11.0588    1.0350    0.0000 H       1  UNL1        0.0265
     36 H          10.2617    1.0350    0.0000 H       1  UNL1        0.0265
     37 H          16.2549    1.0350    0.0000 H       1  UNL1        0.0265
     38 H          15.4579    1.0350    0.0000 H       1  UNL1        0.0265
     39 H           9.3957   -0.4149    0.0000 H       1  UNL1        0.0265
     40 H          10.1928   -0.4149    0.0000 H       1  UNL1        0.0265
     41 H          16.3239   -0.4149    0.0000 H       1  UNL1        0.0265
     42 H          17.1210   -0.4149    0.0000 H       1  UNL1        0.0265
     43 H           9.3267    1.0350    0.0000 H       1  UNL1        0.0265
     44 H           8.5297    1.0350    0.0000 H       1  UNL1        0.0265
     45 H          17.9870    1.0350    0.0000 H       1  UNL1        0.0265
     46 H          17.1899    1.0350    0.0000 H       1  UNL1        0.0265
     47 H           7.6636   -0.4149    0.0000 H       1  UNL1        0.0265
     48 H           8.4607   -0.4149    0.0000 H       1  UNL1        0.0265
     49 H          18.0560   -0.4149    0.0000 H       1  UNL1        0.0265
     50 H          18.8530   -0.4149    0.0000 H       1  UNL1        0.0265
     51 H           7.5947    1.0350    0.0000 H       1  UNL1        0.0265
     52 H           6.7976    1.0350    0.0000 H       1  UNL1        0.0265
     53 H          19.7190    1.0350    0.0000 H       1  UNL1        0.0265
     54 H          18.9220    1.0350    0.0000 H       1  UNL1        0.0265
     55 H           5.9316   -0.4149    0.0000 H       1  UNL1        0.0266
     56 H           6.7287   -0.4149    0.0000 H       1  UNL1        0.0266
     57 H          19.7880   -0.4149    0.0000 H       1  UNL1        0.0265
     58 H          20.5851   -0.4149    0.0000 H       1  UNL1        0.0265
     59 H           5.8626    1.0350    0.0000 H       1  UNL1        0.0298
     60 H           5.0656    1.0350    0.0000 H       1  UNL1        0.0298
     61 H          21.4511    1.0350    0.0000 H       1  UNL1        0.0263
     62 H          20.6540    1.0350    0.0000 H       1  UNL1        0.0263
     63 H           4.1996   -0.4149    0.0000 H       1  UNL1        0.0697
     64 H           4.9966   -0.4149    0.0000 H       1  UNL1        0.0697
     65 H          21.6086   -0.4769    0.0000 H       1  UNL1        0.0230
     66 H          22.4555   -0.2500    0.0000 H       1  UNL1        0.0230
     67 H          22.2286    0.5969    0.0000 H       1  UNL1        0.0230
     68 H           2.8660   -0.5600    0.0000 H       1  UNL1        0.1512
@<TRIPOS>BOND
     1     1    22    1
     2     1    24    1
     3     2    24    2
     4     3     4    1
     5     3     5    1
     6     3    25    1
     7     3    26    1
     8     4     6    1
     9     4    27    1
    10     4    28    1
    11     5     7    1
    12     5    29    1
    13     5    30    1
    14     6     8    1
    15     6    31    1
    16     6    32    1
    17     7     9    1
    18     7    33    1
    19     7    34    1
    20     8    10    1
    21     8    35    1
    22     8    36    1
    23     9    11    1
    24     9    37    1
    25     9    38    1
    26    10    12    1
    27    10    39    1
    28    10    40    1
    29    11    13    1
    30    11    41    1
    31    11    42    1
    32    12    14    1
    33    12    43    1
    34    12    44    1
    35    13    15    1
    36    13    45    1
    37    13    46    1
    38    14    16    1
    39    14    47    1
    40    14    48    1
    41    15    17    1
    42    15    49    1
    43    15    50    1
    44    16    18    1
    45    16    51    1
    46    16    52    1
    47    17    19    1
    48    17    53    1
    49    17    54    1
    50    18    20    1
    51    18    55    1
    52    18    56    1
    53    19    21    1
    54    19    57    1
    55    19    58    1
    56    20    22    1
    57    20    59    1
    58    20    60    1
    59    21    23    1
    60    21    61    1
    61    21    62    1
    62    22    63    1
    63    22    64    1
    64    23    65    1
    65    23    66    1
    66    23    67    1
    67    24    68    1
