@<TRIPOS>MOLECULE
IMPHY009161
 48 51 0 0 0
SMALL
GASTEIGER

@<TRIPOS>ATOM
      1 CL          8.9400    3.6708    0.0000 Cl      1  UNL1       -0.1454
      2 O           1.3915    3.6864    0.0000 O.3     2  UNL2       -0.3733
      3 O           5.8557    5.4268    0.0000 O.3     2  UNL2       -0.4520
      4 O           5.8557    7.0362    0.0000 O.3     2  UNL2       -0.4526
      5 O           4.0966    1.0348    0.0000 O.3     2  UNL2       -0.4951
      6 N           1.4282    5.7529    0.0000 N.3     2  UNL2       -0.2956
      7 C           2.2675    5.2246    0.0000 C.3     2  UNL2        0.0668
      8 C           3.1775    5.7315    0.0000 C.ar    2  UNL2       -0.0128
      9 C           2.2594    4.1830    0.0000 C.3     2  UNL2        0.1035
     10 C           3.1775    6.7315    0.0000 C.ar    2  UNL2       -0.0371
     11 C           4.0435    5.2315    0.0000 C.ar    2  UNL2        0.0330
     12 C           1.4538    6.7443    0.0000 C.3     2  UNL2        0.0033
     13 C           2.3192    7.2284    0.0000 C.3     2  UNL2       -0.0144
     14 C           3.1615    3.6622    0.0000 C.ar    2  UNL2       -0.0058
     15 C           4.0596    4.1900    0.0000 C.ar    2  UNL2       -0.0080
     16 C           4.9095    5.7315    0.0000 C.ar    2  UNL2        0.1742
     17 C           4.0435    7.2315    0.0000 C.ar    2  UNL2       -0.0126
     18 C           0.5466    5.2808    0.0000 C.3     2  UNL2       -0.0121
     19 C           4.9095    6.7315    0.0000 C.ar    2  UNL2        0.1671
     20 C           3.1532    2.5773    0.0000 C.ar    2  UNL2       -0.0137
     21 C           5.0115    3.6694    0.0000 C.ar    2  UNL2       -0.0501
     22 C           4.0928    2.0348    0.0000 C.ar    2  UNL2        0.1205
     23 C           5.0282    2.5845    0.0000 C.ar    2  UNL2       -0.0194
     24 C           6.4393    6.2315    0.0000 C.3     2  UNL2        0.2333
     25 C           1.3876    2.6864    0.0000 C.3     2  UNL2        0.0373
     26 C           4.9646    0.5381    0.0000 C.3     2  UNL2        0.0788
     27 H           1.7236    4.9270    0.0000 H       2  UNL2        0.0542
     28 H           2.2582    3.5630    0.0000 H       2  UNL2        0.0665
     29 H           1.2520    7.3305    0.0000 H       2  UNL2        0.0430
     30 H           0.8410    6.6499    0.0000 H       2  UNL2        0.0430
     31 H           2.7203    7.7012    0.0000 H       2  UNL2        0.0326
     32 H           1.9252    7.7071    0.0000 H       2  UNL2        0.0326
     33 H           4.0435    7.8515    0.0000 H       2  UNL2        0.0658
     34 H           0.2539    5.8274    0.0000 H       2  UNL2        0.0391
     35 H           0.0000    4.9882    0.0000 H       2  UNL2        0.0391
     36 H           0.8392    4.7343    0.0000 H       2  UNL2        0.0391
     37 H           2.6150    2.2694    0.0000 H       2  UNL2        0.0658
     38 H           5.5423    3.9897    0.0000 H       2  UNL2        0.0625
     39 H           5.5687    2.2807    0.0000 H       2  UNL2        0.0654
     40 H           6.9002    5.8168    0.0000 H       2  UNL2        0.1166
     41 H           6.9002    6.6462    0.0000 H       2  UNL2        0.1166
     42 H           0.7676    2.6888    0.0000 H       2  UNL2        0.0524
     43 H           1.3852    2.0664    0.0000 H       2  UNL2        0.0524
     44 H           2.0076    2.6840    0.0000 H       2  UNL2        0.0524
     45 H           4.6566    0.0000    0.0000 H       2  UNL2        0.0660
     46 H           5.5027    0.2302    0.0000 H       2  UNL2        0.0660
     47 H           5.2725    1.0762    0.0000 H       2  UNL2        0.0660
     48 H           9.9400    3.6708    0.0000 H       1  UNL1        0.1454
@<TRIPOS>BOND
     1     1    48    1
     2     2     9    1
     3     2    25    1
     4     3    16    1
     5     3    24    1
     6     4    19    1
     7     4    24    1
     8     5    22    1
     9     5    26    1
    10     6     7    1
    11     6    12    1
    12     6    18    1
    13     7     8    1
    14     7     9    1
    15     7    27    1
    16     8    10   ar
    17     8    11   ar
    18     9    14    1
    19     9    28    1
    20    10    13    1
    21    10    17   ar
    22    11    15    1
    23    11    16   ar
    24    12    13    1
    25    12    29    1
    26    12    30    1
    27    13    31    1
    28    13    32    1
    29    14    15   ar
    30    14    20   ar
    31    15    21   ar
    32    16    19   ar
    33    17    19   ar
    34    17    33    1
    35    18    34    1
    36    18    35    1
    37    18    36    1
    38    20    22   ar
    39    20    37    1
    40    21    23   ar
    41    21    38    1
    42    22    23   ar
    43    23    39    1
    44    24    40    1
    45    24    41    1
    46    25    42    1
    47    25    43    1
    48    25    44    1
    49    26    45    1
    50    26    46    1
    51    26    47    1
