@<TRIPOS>MOLECULE
IMPHY004838
 30 32 0 0 0
SMALL
GASTEIGER

@<TRIPOS>ATOM
      1 O           6.4144    2.0346    0.0000 O.3     1  UNL1       -0.5051
      2 O           6.4144   -2.0346    0.0000 O.3     1  UNL1       -0.5028
      3 O           4.6660    2.0000    0.0000 O.2     1  UNL1       -0.2865
      4 O           4.6660   -2.0000    0.0000 O.2     1  UNL1       -0.2865
      5 O           8.1962   -1.0241    0.0000 O.3     1  UNL1       -0.5027
      6 O           9.0641    0.5275    0.0000 O.3     1  UNL1       -0.4770
      7 O           8.1923    2.0241    0.0000 O.2     1  UNL1       -0.2449
      8 C           5.5321    0.5000    0.0000 C.ar    1  UNL1        0.0790
      9 C           5.5321   -0.5000    0.0000 C.ar    1  UNL1        0.0816
     10 C           3.8000    0.5000    0.0000 C.ar    1  UNL1        0.0332
     11 C           3.8000   -0.5000    0.0000 C.ar    1  UNL1        0.0332
     12 C           4.6660    1.0000    0.0000 C.2     1  UNL1        0.1981
     13 C           4.6660   -1.0000    0.0000 C.2     1  UNL1        0.1982
     14 C           6.4260    1.0347    0.0000 C.ar    1  UNL1        0.1461
     15 C           6.4260   -1.0347    0.0000 C.ar    1  UNL1        0.1710
     16 C           7.3321    0.5208    0.0000 C.ar    1  UNL1        0.1457
     17 C           7.3321   -0.5208    0.0000 C.ar    1  UNL1        0.1768
     18 C           2.9061    1.0347    0.0000 C.ar    1  UNL1       -0.0502
     19 C           2.9061   -1.0347    0.0000 C.ar    1  UNL1       -0.0502
     20 C           2.0000    0.5208    0.0000 C.ar    1  UNL1       -0.0610
     21 C           2.0000   -0.5208    0.0000 C.ar    1  UNL1       -0.0610
     22 C           8.1962    1.0241    0.0000 C.2     1  UNL1        0.3441
     23 H           2.9132    1.6546    0.0000 H       1  UNL1        0.0625
     24 H           2.9132   -1.6546    0.0000 H       1  UNL1        0.0625
     25 H           1.4643    0.8329    0.0000 H       1  UNL1        0.0618
     26 H           1.4643   -0.8329    0.0000 H       1  UNL1        0.0618
     27 H           6.9478    2.3508    0.0000 H       1  UNL1        0.2922
     28 H           6.9478   -2.3508    0.0000 H       1  UNL1        0.2923
     29 H           8.1938   -1.6442    0.0000 H       1  UNL1        0.2923
     30 H           9.5998    0.8396    0.0000 H       1  UNL1        0.2954
@<TRIPOS>BOND
     1     1    14    1
     2     1    27    1
     3     2    15    1
     4     2    28    1
     5     3    12    2
     6     4    13    2
     7     5    17    1
     8     5    29    1
     9     6    22    1
    10     6    30    1
    11     7    22    2
    12     8     9   ar
    13     8    12    1
    14     8    14   ar
    15     9    13    1
    16     9    15   ar
    17    10    11   ar
    18    10    12    1
    19    10    18   ar
    20    11    13    1
    21    11    19   ar
    22    14    16   ar
    23    15    17   ar
    24    16    17   ar
    25    16    22    1
    26    18    20   ar
    27    18    23    1
    28    19    21   ar
    29    19    24    1
    30    20    21   ar
    31    20    25    1
    32    21    26    1
