@<TRIPOS>MOLECULE
IMPHY007447
 111 119 0 0 0
SMALL
GASTEIGER

@<TRIPOS>ATOM
      1 P          15.7520   -5.8450    0.0000 P.3     1  UNL1        0.5282
      2 F           3.7321    1.7475    0.0000 F       1  UNL1       -0.1984
      3 F           5.4641   -1.2526    0.0000 F       1  UNL1       -0.1984
      4 F           5.3596    3.1550    0.0000 F       1  UNL1       -0.1984
      5 F           7.0917    6.1550    0.0000 F       1  UNL1       -0.1984
      6 F           3.7320   -2.2526    0.0000 F       1  UNL1       -0.1992
      7 F           2.0000    0.7474    0.0000 F       1  UNL1       -0.1992
      8 F           5.3596    7.1550    0.0000 F       1  UNL1       -0.1992
      9 F           3.6276    4.1550    0.0000 F       1  UNL1       -0.1992
     10 F           2.0000   -1.2526    0.0000 F       1  UNL1       -0.1993
     11 F           3.6276    6.1550    0.0000 F       1  UNL1       -0.1993
     12 O           9.6898   -1.3450    0.0000 O.3     1  UNL1       -0.3393
     13 O          12.6198   -0.2701    0.0000 O.3     1  UNL1       -0.4640
     14 O          10.5558    0.1550    0.0000 O.3     1  UNL1       -0.3394
     15 O           9.6737    2.6965    0.0000 O.3     1  UNL1       -0.3419
     16 O           7.9577   -0.3450    0.0000 O.3     1  UNL1       -0.4500
     17 O          14.0034   -1.3841    0.0000 O.2     1  UNL1       -0.2505
     18 O           7.9577    1.6550    0.0000 O.3     1  UNL1       -0.4523
     19 O          11.4738    2.7034    0.0000 O.3     1  UNL1       -0.3489
     20 O           8.8701   -5.0883    0.0000 O.3     1  UNL1       -0.4526
     21 O          10.3219   -5.9265    0.0000 O.3     1  UNL1       -0.4526
     22 O          15.7520   -2.8450    0.0000 O.3     1  UNL1       -0.4913
     23 O          14.0199   -5.8450    0.0000 O.3     1  UNL1       -0.4913
     24 O          15.7520   -4.8450    0.0000 O.3     1  UNL1       -0.3965
     25 O           6.2257   -0.3450    0.0000 O.2     1  UNL1       -0.2470
     26 O           8.8238    3.1550    0.0000 O.2     1  UNL1       -0.2470
     27 O           5.4641    0.7474    0.0000 O.3     1  UNL1       -0.4749
     28 O           7.0917    4.1550    0.0000 O.3     1  UNL1       -0.4749
     29 O          15.7520   -6.8450    0.0000 O.3     1  UNL1       -0.2930
     30 O          16.7520   -5.8450    0.0000 O.3     1  UNL1       -0.2930
     31 O          14.7520   -5.8450    0.0000 O.2     1  UNL1       -0.2156
     32 C          11.4218   -1.3450    0.0000 C.3     1  UNL1        0.0375
     33 C          12.2878   -1.8450    0.0000 C.3     1  UNL1        0.0758
     34 C          10.5558   -1.8450    0.0000 C.3     1  UNL1        0.0938
     35 C          12.2878   -2.8450    0.0000 C.3     1  UNL1        0.0233
     36 C          10.5558   -2.8450    0.0000 C.ar    1  UNL1       -0.0109
     37 C          11.4218   -3.3450    0.0000 C.ar    1  UNL1       -0.0298
     38 C          11.6310   -0.3732    0.0000 C.3     1  UNL1        0.0987
     39 C          13.0249   -1.1779    0.0000 C.2     1  UNL1        0.3116
     40 C           9.6898   -0.3450    0.0000 C.3     1  UNL1        0.2009
     41 C          13.1539   -3.3450    0.0000 C.ar    1  UNL1       -0.0320
     42 C           8.8238    0.1550    0.0000 C.3     1  UNL1        0.1927
     43 C           8.8238    1.1550    0.0000 C.3     1  UNL1        0.1731
     44 C           9.6898    1.6550    0.0000 C.3     1  UNL1        0.1304
     45 C          10.5558    1.1550    0.0000 C.3     1  UNL1        0.1149
     46 C           9.6458   -3.3518    0.0000 C.ar    1  UNL1       -0.0102
     47 C          11.4379   -4.3865    0.0000 C.ar    1  UNL1       -0.0120
     48 C           9.6378   -4.3934    0.0000 C.ar    1  UNL1        0.1666
     49 C          10.5398   -4.9143    0.0000 C.ar    1  UNL1        0.1665
     50 C          11.4658    1.6618    0.0000 C.3     1  UNL1        0.0795
     51 C          13.1539   -4.3450    0.0000 C.ar    1  UNL1       -0.0123
     52 C          14.0199   -2.8450    0.0000 C.ar    1  UNL1       -0.0123
     53 C          10.5718    3.2243    0.0000 C.3     1  UNL1        0.1571
     54 C          14.8859   -3.3450    0.0000 C.ar    1  UNL1        0.1660
     55 C          14.0199   -4.8450    0.0000 C.ar    1  UNL1        0.1660
     56 C           9.2920   -6.0339    0.0000 C.3     1  UNL1        0.2332
     57 C          14.8859   -4.3450    0.0000 C.ar    1  UNL1        0.2148
     58 C          10.5679    4.2242    0.0000 C.3     1  UNL1       -0.0136
     59 C           7.0917    0.1550    0.0000 C.2     1  UNL1        0.3457
     60 C           7.9577    2.6550    0.0000 C.2     1  UNL1        0.3456
     61 C           6.4489    0.9210    0.0000 C.3     1  UNL1        0.1861
     62 C           7.0917    3.1550    0.0000 C.3     1  UNL1        0.1861
     63 C          16.6180   -3.3450    0.0000 C.3     1  UNL1        0.0790
     64 C          13.1539   -6.3450    0.0000 C.3     1  UNL1        0.0790
     65 C           4.5981    0.2473    0.0000 C.ar    1  UNL1        0.1972
     66 C           6.2257    4.6550    0.0000 C.ar    1  UNL1        0.1972
     67 C           3.7320    0.7474    0.0000 C.ar    1  UNL1        0.2057
     68 C           4.5981   -0.7525    0.0000 C.ar    1  UNL1        0.2057
     69 C           5.3596    4.1550    0.0000 C.ar    1  UNL1        0.2057
     70 C           6.2257    5.6550    0.0000 C.ar    1  UNL1        0.2057
     71 C           3.7321   -1.2526    0.0000 C.ar    1  UNL1        0.2000
     72 C           2.8660    0.2474    0.0000 C.ar    1  UNL1        0.2000
     73 C           5.3596    6.1550    0.0000 C.ar    1  UNL1        0.2000
     74 C           4.4936    4.6550    0.0000 C.ar    1  UNL1        0.2000
     75 C           2.8661   -0.7526    0.0000 C.ar    1  UNL1        0.1993
     76 C           4.4936    5.6550    0.0000 C.ar    1  UNL1        0.1993
     77 H          10.7348   -0.8445    0.0000 H       1  UNL1        0.0370
     78 H          13.0648   -2.1897    0.0000 H       1  UNL1        0.0427
     79 H          10.0189   -2.1550    0.0000 H       1  UNL1        0.0651
     80 H          12.8248   -2.5350    0.0000 H       1  UNL1        0.0405
     81 H          11.6319    0.2468    0.0000 H       1  UNL1        0.0701
     82 H          11.0146   -0.3071    0.0000 H       1  UNL1        0.0701
     83 H           9.1528   -0.6550    0.0000 H       1  UNL1        0.0950
     84 H           8.2868    0.4650    0.0000 H       1  UNL1        0.0824
     85 H           8.8238    1.7750    0.0000 H       1  UNL1        0.0801
     86 H          10.4226    2.0857    0.0000 H       1  UNL1        0.0662
     87 H          11.2886    0.7243    0.0000 H       1  UNL1        0.0647
     88 H           9.1125   -3.0357    0.0000 H       1  UNL1        0.0659
     89 H          11.9784   -4.6903    0.0000 H       1  UNL1        0.0658
     90 H          11.6703    1.0766    0.0000 H       1  UNL1        0.0587
     91 H          12.0775    1.7632    0.0000 H       1  UNL1        0.0587
     92 H          12.6169   -4.6550    0.0000 H       1  UNL1        0.0658
     93 H          14.0199   -2.2250    0.0000 H       1  UNL1        0.0658
     94 H          10.0330    3.5312    0.0000 H       1  UNL1        0.0907
     95 H           8.7024   -6.2256    0.0000 H       1  UNL1        0.1166
     96 H           9.4208   -6.6404    0.0000 H       1  UNL1        0.1166
     97 H          11.1879    4.2266    0.0000 H       1  UNL1        0.0278
     98 H          10.5655    4.8442    0.0000 H       1  UNL1        0.0278
     99 H           9.9479    4.2219    0.0000 H       1  UNL1        0.0278
    100 H           6.9858    1.2310    0.0000 H       1  UNL1        0.0815
    101 H           6.2369    1.5036    0.0000 H       1  UNL1        0.0815
    102 H           6.4811    3.2627    0.0000 H       1  UNL1        0.0815
    103 H           6.8796    2.5724    0.0000 H       1  UNL1        0.0815
    104 H          16.3080   -3.8819    0.0000 H       1  UNL1        0.0660
    105 H          17.1549   -3.6550    0.0000 H       1  UNL1        0.0660
    106 H          16.9280   -2.8081    0.0000 H       1  UNL1        0.0660
    107 H          12.8439   -5.8081    0.0000 H       1  UNL1        0.0660
    108 H          12.6169   -6.6550    0.0000 H       1  UNL1        0.0660
    109 H          13.4639   -6.8819    0.0000 H       1  UNL1        0.0660
    110 H          16.2889   -7.1550    0.0000 H       1  UNL1        0.2231
    111 H          17.0620   -5.3081    0.0000 H       1  UNL1        0.2231
@<TRIPOS>BOND
     1     1    24    1
     2     1    29    1
     3     1    30    1
     4     1    31    2
     5     2    67    1
     6     3    68    1
     7     4    69    1
     8     5    70    1
     9     6    71    1
    10     7    72    1
    11     8    73    1
    12     9    74    1
    13    10    75    1
    14    11    76    1
    15    34    12    1
    16    40    12    1
    17    13    38    1
    18    13    39    1
    19    14    40    1
    20    14    45    1
    21    15    44    1
    22    15    53    1
    23    42    16    1
    24    16    59    1
    25    17    39    2
    26    43    18    1
    27    18    60    1
    28    19    50    1
    29    19    53    1
    30    20    48    1
    31    20    56    1
    32    21    49    1
    33    21    56    1
    34    22    54    1
    35    22    63    1
    36    23    55    1
    37    23    64    1
    38    24    57    1
    39    25    59    2
    40    26    60    2
    41    27    61    1
    42    27    65    1
    43    28    62    1
    44    28    66    1
    45    29   110    1
    46    30   111    1
    47    32    33    1
    48    32    34    1
    49    32    38    1
    50    32    77    1
    51    33    35    1
    52    33    39    1
    53    33    78    1
    54    34    36    1
    55    34    79    1
    56    35    37    1
    57    35    41    1
    58    35    80    1
    59    36    37   ar
    60    36    46   ar
    61    37    47   ar
    62    38    81    1
    63    38    82    1
    64    40    42    1
    65    40    83    1
    66    41    51   ar
    67    41    52   ar
    68    42    43    1
    69    42    84    1
    70    43    44    1
    71    43    85    1
    72    44    45    1
    73    44    86    1
    74    45    50    1
    75    45    87    1
    76    46    48   ar
    77    46    88    1
    78    47    49   ar
    79    47    89    1
    80    48    49   ar
    81    50    90    1
    82    50    91    1
    83    51    55   ar
    84    51    92    1
    85    52    54   ar
    86    52    93    1
    87    53    58    1
    88    53    94    1
    89    54    57   ar
    90    55    57   ar
    91    56    95    1
    92    56    96    1
    93    58    97    1
    94    58    98    1
    95    58    99    1
    96    59    61    1
    97    60    62    1
    98    61   100    1
    99    61   101    1
   100    62   102    1
   101    62   103    1
   102    63   104    1
   103    63   105    1
   104    63   106    1
   105    64   107    1
   106    64   108    1
   107    64   109    1
   108    65    67   ar
   109    65    68   ar
   110    66    69   ar
   111    66    70   ar
   112    67    72   ar
   113    68    71   ar
   114    69    74   ar
   115    70    73   ar
   116    71    75   ar
   117    72    75   ar
   118    73    76   ar
   119    74    76   ar
