@<TRIPOS>MOLECULE
IMPHY004802
 43 47 0 0 0
SMALL
GASTEIGER

@<TRIPOS>ATOM
      1 O           9.5299    2.5117    0.0000 O.3     1  UNL1       -0.4853
      2 O           7.5084   -0.2648    0.0000 O.2     1  UNL1       -0.4237
      3 O          12.1135    1.7070    0.0000 O.3     1  UNL1       -0.3855
      4 O           5.9248   -1.2154    0.0000 O.2     1  UNL1       -0.4237
      5 O           4.6896    1.5810    0.0000 O.2     1  UNL1       -0.2861
      6 O           3.0043    0.8758    0.0000 O.3     1  UNL1       -0.5058
      7 O           2.6169   -2.7070    0.0000 O.3     1  UNL1       -0.5065
      8 C          10.1135    1.7070    0.0000 C.3     1  UNL1        0.1323
      9 C           9.5299    0.9023    0.0000 C.3     1  UNL1        0.0192
     10 C          11.1135    1.7070    0.0000 C.3     1  UNL1        0.0974
     11 C           8.5837    1.2070    0.0000 C.ar    1  UNL1        0.0408
     12 C           8.5837    2.2070    0.0000 C.ar    1  UNL1        0.1279
     13 C           7.7176    0.7070    0.0000 C.ar    1  UNL1        0.1466
     14 C           6.8516    1.2070    0.0000 C.ar    1  UNL1        0.0355
     15 C          11.1135    2.7070    0.0000 C.3     1  UNL1       -0.0328
     16 C          11.1135    0.7070    0.0000 C.3     1  UNL1       -0.0328
     17 C           7.7176    2.7070    0.0000 C.ar    1  UNL1       -0.0188
     18 C           6.1146    0.5399    0.0000 C.ar    1  UNL1        0.1136
     19 C           6.8516    2.2070    0.0000 C.ar    1  UNL1       -0.0467
     20 C           6.5197   -0.3679    0.0000 C.ar    1  UNL1        0.3042
     21 C           5.0865    0.6631    0.0000 C.ar    1  UNL1        0.2076
     22 C           4.4722   -0.1704    0.0000 C.ar    1  UNL1        0.1063
     23 C           4.8941   -1.1160    0.0000 C.ar    1  UNL1        0.1496
     24 C           3.4012   -0.0421    0.0000 C.ar    1  UNL1        0.1347
     25 C           4.2744   -1.9988    0.0000 C.ar    1  UNL1        0.0232
     26 C           2.7613   -0.9103    0.0000 C.ar    1  UNL1        0.0223
     27 C           3.2009   -1.8952    0.0000 C.ar    1  UNL1        0.1239
     28 H          10.3952    2.2593    0.0000 H       1  UNL1        0.0765
     29 H           9.2789    0.3354    0.0000 H       1  UNL1        0.0352
     30 H          10.0673    0.5930    0.0000 H       1  UNL1        0.0352
     31 H          11.7335    2.7070    0.0000 H       1  UNL1        0.0258
     32 H          11.1135    3.3270    0.0000 H       1  UNL1        0.0258
     33 H          10.4935    2.7070    0.0000 H       1  UNL1        0.0258
     34 H          10.4935    0.7070    0.0000 H       1  UNL1        0.0258
     35 H          11.1135    0.0870    0.0000 H       1  UNL1        0.0258
     36 H          11.7335    0.7070    0.0000 H       1  UNL1        0.0258
     37 H           7.7176    3.3270    0.0000 H       1  UNL1        0.0654
     38 H           6.3147    2.5170    0.0000 H       1  UNL1        0.0626
     39 H          12.4235    2.2439    0.0000 H       1  UNL1        0.2103
     40 H           4.5336   -2.5620    0.0000 H       1  UNL1        0.0691
     41 H           2.1449   -0.8436    0.0000 H       1  UNL1        0.0691
     42 H           2.3884    0.9472    0.0000 H       1  UNL1        0.2922
     43 H           2.0000   -2.6451    0.0000 H       1  UNL1        0.2921
@<TRIPOS>BOND
     1     1     8    1
     2     1    12    1
     3     2    13   ar
     4     2    20   ar
     5     3    10    1
     6     3    39    1
     7     4    20   ar
     8     4    23   ar
     9     5    21    2
    10     6    24    1
    11     6    42    1
    12     7    27    1
    13     7    43    1
    14     8     9    1
    15     8    10    1
    16     8    28    1
    17     9    11    1
    18     9    29    1
    19     9    30    1
    20    10    15    1
    21    10    16    1
    22    11    12   ar
    23    11    13   ar
    24    12    17   ar
    25    13    14   ar
    26    14    18   ar
    27    14    19   ar
    28    15    31    1
    29    15    32    1
    30    15    33    1
    31    16    34    1
    32    16    35    1
    33    16    36    1
    34    17    19   ar
    35    17    37    1
    36    18    20   ar
    37    18    21   ar
    38    19    38    1
    39    21    22   ar
    40    22    23   ar
    41    22    24   ar
    42    23    25   ar
    43    24    26   ar
    44    25    27   ar
    45    25    40    1
    46    26    27   ar
    47    26    41    1
