@<TRIPOS>MOLECULE
IMPHY002062
 80 84 0 0 0
SMALL
GASTEIGER

@<TRIPOS>ATOM
      1 O           5.6489   -3.4047    0.0000 O.3     1  UNL1       -0.3914
      2 O           2.0000   -2.3878    0.0000 O.2     1  UNL1       -0.2968
      3 C           6.5271   -0.8354    0.0000 C.3     1  UNL1       -0.0170
      4 C           5.6610   -0.3354    0.0000 C.3     1  UNL1       -0.0256
      5 C           7.3931   -0.3354    0.0000 C.3     1  UNL1       -0.0050
      6 C           4.7510   -0.8423    0.0000 C.3     1  UNL1       -0.0220
      7 C           4.7430   -1.8839    0.0000 C.3     1  UNL1        0.0025
      8 C           6.5431   -1.8769    0.0000 C.3     1  UNL1       -0.0201
      9 C           7.3931    0.6646    0.0000 C.2     1  UNL1       -0.0634
     10 C           8.2870    1.1992    0.0000 C.3     1  UNL1       -0.0135
     11 C           9.1931    0.6854    0.0000 C.3     1  UNL1       -0.0255
     12 C           5.6451   -2.4047    0.0000 C.3     1  UNL1        0.0600
     13 C           8.2870   -0.8701    0.0000 C.3     1  UNL1       -0.0429
     14 C           5.6610    0.6646    0.0000 C.3     1  UNL1       -0.0306
     15 C           3.8076   -2.4336    0.0000 C.3     1  UNL1        0.0290
     16 C           3.8242   -0.2782    0.0000 C.3     1  UNL1       -0.0403
     17 C           9.1931   -0.3562    0.0000 C.3     1  UNL1       -0.0463
     18 C           7.1698   -1.6015    0.0000 C.3     1  UNL1       -0.0584
     19 C           6.5271    1.1646    0.0000 C.2     1  UNL1       -0.0836
     20 C           7.7352   -1.2751    0.0000 C.3     1  UNL1       -0.0553
     21 C           8.2619    2.2839    0.0000 C.3     1  UNL1       -0.0408
     22 C           4.7587    0.1577    0.0000 C.3     1  UNL1       -0.0589
     23 C          10.1369    1.2206    0.0000 C.3     1  UNL1       -0.0466
     24 C           9.1931    2.8409    0.0000 C.3     1  UNL1       -0.0343
     25 C           2.8763   -0.8061    0.0000 C.3     1  UNL1        0.0069
     26 C           2.8680   -1.8911    0.0000 C.2     1  UNL1        0.1393
     27 C          10.1369    2.3056    0.0000 C.3     1  UNL1       -0.0473
     28 C          10.0629    0.1921    0.0000 C.3     1  UNL1       -0.0590
     29 C           3.3109   -3.3015    0.0000 C.3     1  UNL1       -0.0527
     30 C           4.3109   -3.2977    0.0000 C.3     1  UNL1       -0.0527
     31 C           9.6830    3.7126    0.0000 C.3     1  UNL1       -0.0598
     32 C           8.6831    3.7010    0.0000 C.3     1  UNL1       -0.0598
     33 H           6.3972    0.0896    0.0000 H       1  UNL1        0.0315
     34 H           4.7463   -2.7339    0.0000 H       1  UNL1        0.0340
     35 H           6.7612   -2.4573    0.0000 H       1  UNL1        0.0296
     36 H           7.1523   -1.7614    0.0000 H       1  UNL1        0.0296
     37 H           9.0165    1.6355    0.0000 H       1  UNL1        0.0351
     38 H           5.1087   -2.7157    0.0000 H       1  UNL1        0.0596
     39 H           7.8824   -1.3399    0.0000 H       1  UNL1        0.0274
     40 H           8.6806   -1.3491    0.0000 H       1  UNL1        0.0274
     41 H           5.4490    1.2472    0.0000 H       1  UNL1        0.0310
     42 H           5.0504    0.5569    0.0000 H       1  UNL1        0.0310
     43 H           4.2324    0.1885    0.0000 H       1  UNL1        0.0275
     44 H           3.4343    0.2038    0.0000 H       1  UNL1        0.0275
     45 H           9.4022   -0.9399    0.0000 H       1  UNL1        0.0271
     46 H           9.8040   -0.2501    0.0000 H       1  UNL1        0.0271
     47 H           6.6949   -2.0000    0.0000 H       1  UNL1        0.0235
     48 H           7.5684   -2.0764    0.0000 H       1  UNL1        0.0235
     49 H           7.6448   -1.2029    0.0000 H       1  UNL1        0.0235
     50 H           6.5271    1.7846    0.0000 H       1  UNL1        0.0572
     51 H           7.1526   -1.4872    0.0000 H       1  UNL1        0.0238
     52 H           7.9473   -1.8577    0.0000 H       1  UNL1        0.0238
     53 H           8.3178   -1.0630    0.0000 H       1  UNL1        0.0238
     54 H           8.0394    2.8626    0.0000 H       1  UNL1        0.0276
     55 H           7.6537    2.1638    0.0000 H       1  UNL1        0.0276
     56 H           5.3787    0.1529    0.0000 H       1  UNL1        0.0235
     57 H           4.7635    0.7777    0.0000 H       1  UNL1        0.0235
     58 H           4.1388    0.1625    0.0000 H       1  UNL1        0.0235
     59 H          10.3459    0.6369    0.0000 H       1  UNL1        0.0271
     60 H          10.7477    1.3267    0.0000 H       1  UNL1        0.0271
     61 H           2.6718   -0.2209    0.0000 H       1  UNL1        0.0342
     62 H           2.2647   -0.9075    0.0000 H       1  UNL1        0.0342
     63 H          10.7477    2.1995    0.0000 H       1  UNL1        0.0271
     64 H          10.3459    2.8893    0.0000 H       1  UNL1        0.0271
     65 H           9.7571   -0.3472    0.0000 H       1  UNL1        0.0235
     66 H          10.6023   -0.1138    0.0000 H       1  UNL1        0.0235
     67 H          10.3688    0.7314    0.0000 H       1  UNL1        0.0235
     68 H           3.7752   -3.6098    0.0000 H       1  UNL1        0.0239
     69 H           2.7728   -2.9936    0.0000 H       1  UNL1        0.0239
     70 H           4.6230   -3.8334    0.0000 H       1  UNL1        0.0239
     71 H           4.8466   -2.9856    0.0000 H       1  UNL1        0.0239
     72 H           3.0030   -3.8397    0.0000 H       1  UNL1        0.0239
     73 H           3.8490   -3.6095    0.0000 H       1  UNL1        0.0239
     74 H           6.1871   -3.7126    0.0000 H       1  UNL1        0.2098
     75 H           9.2164    4.0172    0.0000 H       1  UNL1        0.0235
     76 H           8.3669    4.2344    0.0000 H       1  UNL1        0.0235
     77 H           8.1498    3.3849    0.0000 H       1  UNL1        0.0235
     78 H          10.2235    3.4088    0.0000 H       1  UNL1        0.0235
     79 H           9.9868    4.2531    0.0000 H       1  UNL1        0.0235
     80 H           9.1426    4.0164    0.0000 H       1  UNL1        0.0235
@<TRIPOS>BOND
     1    12     1    1
     2     1    74    1
     3     2    26    2
     4     3     4    1
     5     3     5    1
     6     3     8    1
     7     3    18    1
     8     4     6    1
     9     4    14    1
    10     4    33    1
    11     5     9    1
    12     5    13    1
    13     5    20    1
    14     6     7    1
    15     6    16    1
    16     6    22    1
    17     7    12    1
    18     7    15    1
    19     7    34    1
    20     8    12    1
    21     8    35    1
    22     8    36    1
    23     9    10    1
    24     9    19    2
    25    10    11    1
    26    10    21    1
    27    10    37    1
    28    11    17    1
    29    11    23    1
    30    11    28    1
    31    12    38    1
    32    13    17    1
    33    13    39    1
    34    13    40    1
    35    14    19    1
    36    14    41    1
    37    14    42    1
    38    15    26    1
    39    15    29    1
    40    15    30    1
    41    16    25    1
    42    16    43    1
    43    16    44    1
    44    17    45    1
    45    17    46    1
    46    18    47    1
    47    18    48    1
    48    18    49    1
    49    19    50    1
    50    20    51    1
    51    20    52    1
    52    20    53    1
    53    21    24    1
    54    21    54    1
    55    21    55    1
    56    22    56    1
    57    22    57    1
    58    22    58    1
    59    23    27    1
    60    23    59    1
    61    23    60    1
    62    24    27    1
    63    24    31    1
    64    24    32    1
    65    25    26    1
    66    25    61    1
    67    25    62    1
    68    27    63    1
    69    27    64    1
    70    28    65    1
    71    28    66    1
    72    28    67    1
    73    29    69    1
    74    29    72    1
    75    29    73    1
    76    30    68    1
    77    30    70    1
    78    30    71    1
    79    31    78    1
    80    31    79    1
    81    31    80    1
    82    32    75    1
    83    32    76    1
    84    32    77    1
