@<TRIPOS>MOLECULE
IMPHY005293
 69 73 0 0 0
SMALL
GASTEIGER

@<TRIPOS>ATOM
      1 O           3.7320   -0.2652    0.0000 O.3     1  UNL1       -0.4606
      2 O           5.4148    2.9315    0.0000 O.3     1  UNL1       -0.4241
      3 O           7.2954    2.7274    0.0000 O.3     1  UNL1       -0.3510
      4 O           6.3422   -4.8345    0.0000 O.2     1  UNL1       -0.2921
      5 O           3.6076    2.8717    0.0000 O.2     1  UNL1       -0.2455
      6 O           8.0644    4.3311    0.0000 O.2     1  UNL1       -0.4705
      7 O           2.8660   -1.7652    0.0000 O.2     1  UNL1       -0.2512
      8 C           6.3301   -0.7652    0.0000 C.3     1  UNL1       -0.0194
      9 C           5.4641   -0.2652    0.0000 C.3     1  UNL1        0.0307
     10 C           6.3301   -1.7652    0.0000 C.3     1  UNL1       -0.0061
     11 C           5.4641   -2.2652    0.0000 C.3     1  UNL1       -0.0164
     12 C           4.5981   -0.7652    0.0000 C.3     1  UNL1        0.1126
     13 C           6.3461    1.3040    0.0000 C.3     1  UNL1        0.0601
     14 C           4.5981   -1.7652    0.0000 C.3     1  UNL1       -0.0103
     15 C           7.2401   -0.2584    0.0000 C.3     1  UNL1       -0.0475
     16 C           5.4480    0.7763    0.0000 C.2     1  UNL1       -0.0407
     17 C           5.4480   -3.3067    0.0000 C.3     1  UNL1        0.0311
     18 C           7.2482    0.7832    0.0000 C.3     1  UNL1       -0.0372
     19 C           4.5981    0.2348    0.0000 C.3     1  UNL1       -0.0521
     20 C           7.1962   -1.2652    0.0000 C.3     1  UNL1       -0.0555
     21 C           7.2401   -2.2721    0.0000 C.2     1  UNL1       -0.0742
     22 C           6.3544    2.3890    0.0000 C.3     1  UNL1        0.2522
     23 C           7.3295    1.4853    0.0000 C.3     1  UNL1       -0.0494
     24 C           6.3461   -3.8345    0.0000 C.2     1  UNL1        0.1617
     25 C           4.4961    1.2969    0.0000 C.2     1  UNL1        0.0232
     26 C           7.2482   -3.3137    0.0000 C.2     1  UNL1       -0.0221
     27 C           4.9381   -4.1669    0.0000 C.3     1  UNL1       -0.0525
     28 C           4.4481   -3.2952    0.0000 C.3     1  UNL1       -0.0525
     29 C           6.8578    3.2531    0.0000 C.ar    1  UNL1        0.0618
     30 C           4.4794    2.3818    0.0000 C.2     1  UNL1        0.3345
     31 C           2.8660   -0.7652    0.0000 C.2     1  UNL1        0.3042
     32 C           6.4546    4.1682    0.0000 C.ar    1  UNL1       -0.0145
     33 C           7.8527    3.3538    0.0000 C.ar    1  UNL1        0.1011
     34 C           2.0000   -0.2652    0.0000 C.3     1  UNL1        0.0332
     35 C           7.2003    4.8345    0.0000 C.ar    1  UNL1        0.0922
     36 H           7.0630   -1.1959    0.0000 H       1  UNL1        0.0319
     37 H           4.7247   -2.6845    0.0000 H       1  UNL1        0.0320
     38 H           5.1602   -0.1452    0.0000 H       1  UNL1        0.0743
     39 H           3.9875   -1.6576    0.0000 H       1  UNL1        0.0304
     40 H           4.3860   -2.3478    0.0000 H       1  UNL1        0.0304
     41 H           7.4447   -0.8437    0.0000 H       1  UNL1        0.0269
     42 H           7.8518   -0.1570    0.0000 H       1  UNL1        0.0269
     43 H           7.8582    0.6724    0.0000 H       1  UNL1        0.0276
     44 H           7.4617    1.3653    0.0000 H       1  UNL1        0.0276
     45 H           4.9081    0.7717    0.0000 H       1  UNL1        0.0239
     46 H           4.0611    0.5448    0.0000 H       1  UNL1        0.0239
     47 H           4.2881   -0.3021    0.0000 H       1  UNL1        0.0239
     48 H           7.5062   -1.8022    0.0000 H       1  UNL1        0.0238
     49 H           7.7331   -0.9552    0.0000 H       1  UNL1        0.0238
     50 H           6.8862   -0.7283    0.0000 H       1  UNL1        0.0238
     51 H           7.7734   -1.9559    0.0000 H       1  UNL1        0.0579
     52 H           7.4419    0.8755    0.0000 H       1  UNL1        0.0240
     53 H           7.9392    1.5976    0.0000 H       1  UNL1        0.0240
     54 H           7.2172    2.0950    0.0000 H       1  UNL1        0.0240
     55 H           3.9652    0.9766    0.0000 H       1  UNL1        0.0689
     56 H           7.7863   -3.6216    0.0000 H       1  UNL1        0.0649
     57 H           4.4048   -3.8507    0.0000 H       1  UNL1        0.0239
     58 H           4.4553   -2.6752    0.0000 H       1  UNL1        0.0239
     59 H           3.8282   -3.2880    0.0000 H       1  UNL1        0.0239
     60 H           4.4409   -3.9151    0.0000 H       1  UNL1        0.0239
     61 H           4.6219   -4.7002    0.0000 H       1  UNL1        0.0239
     62 H           5.4714   -4.4831    0.0000 H       1  UNL1        0.0239
     63 H           7.7689    2.3270    0.0000 H       1  UNL1        0.2142
     64 H           5.8486    4.2994    0.0000 H       1  UNL1        0.0654
     65 H           8.2658    2.8914    0.0000 H       1  UNL1        0.1034
     66 H           2.3100    0.2717    0.0000 H       1  UNL1        0.0342
     67 H           1.4631    0.0448    0.0000 H       1  UNL1        0.0342
     68 H           1.6900   -0.8022    0.0000 H       1  UNL1        0.0342
     69 H           7.1378    5.4513    0.0000 H       1  UNL1        0.1029
@<TRIPOS>BOND
     1    12     1    1
     2     1    31    1
     3     2    22    1
     4     2    30    1
     5    22     3    1
     6     3    63    1
     7     4    24    2
     8     5    30    2
     9     6    33   ar
    10     6    35   ar
    11     7    31    2
    12     8     9    1
    13     8    10    1
    14     8    15    1
    15     8    36    1
    16     9    12    1
    17     9    16    1
    18     9    19    1
    19    10    11    1
    20    10    20    1
    21    10    21    1
    22    11    14    1
    23    11    17    1
    24    11    37    1
    25    12    14    1
    26    12    38    1
    27    13    16    1
    28    13    18    1
    29    13    22    1
    30    13    23    1
    31    14    39    1
    32    14    40    1
    33    15    18    1
    34    15    41    1
    35    15    42    1
    36    16    25    2
    37    17    24    1
    38    17    27    1
    39    17    28    1
    40    18    43    1
    41    18    44    1
    42    19    45    1
    43    19    46    1
    44    19    47    1
    45    20    48    1
    46    20    49    1
    47    20    50    1
    48    21    26    2
    49    21    51    1
    50    22    29    1
    51    23    52    1
    52    23    53    1
    53    23    54    1
    54    24    26    1
    55    25    30    1
    56    25    55    1
    57    26    56    1
    58    27    57    1
    59    27    61    1
    60    27    62    1
    61    28    58    1
    62    28    59    1
    63    28    60    1
    64    29    32   ar
    65    29    33   ar
    66    31    34    1
    67    32    35   ar
    68    32    64    1
    69    33    65    1
    70    34    66    1
    71    34    67    1
    72    34    68    1
    73    35    69    1
