@<TRIPOS>MOLECULE
IMPHY004116
 51 55 0 0 0
SMALL
GASTEIGER

@<TRIPOS>ATOM
      1 O           5.0414   -1.3650    0.0000 O.3     1  UNL1       -0.4637
      2 O           5.8934    3.0182    0.0000 O.3     1  UNL1       -0.3843
      3 O           6.7568   -0.9455    0.0000 O.3     1  UNL1       -0.4804
      4 O           6.0575   -2.5300    0.0000 O.2     1  UNL1       -0.2507
      5 O           4.6745   -3.2009    0.0000 O.2     1  UNL1       -0.2502
      6 C           5.1708   -0.1474    0.0000 C.3     1  UNL1       -0.0060
      7 C           3.5848   -0.4338    0.0000 C.3     1  UNL1        0.0129
      8 C           4.2699    0.2865    0.0000 C.3     1  UNL1       -0.0251
      9 C           4.0566   -1.3088    0.0000 C.3     1  UNL1       -0.0031
     10 C           5.0349   -1.1321    0.0000 C.3     1  UNL1        0.0670
     11 C           5.0640    1.0294    0.0000 C.3     1  UNL1       -0.0131
     12 C           3.5267   -2.1984    0.0000 C.3     1  UNL1        0.0692
     13 C           5.6708    2.0433    0.0000 C.3     1  UNL1        0.0874
     14 C           6.0718    0.2865    0.0000 C.3     1  UNL1       -0.0225
     15 C           4.0474    1.2614    0.0000 C.3     1  UNL1       -0.0461
     16 C           2.5503   -0.3878    0.0000 C.3     1  UNL1       -0.0437
     17 C           4.5781   -0.4848    0.0000 C.3     1  UNL1        0.0986
     18 C           4.6708    2.0433    0.0000 C.3     1  UNL1       -0.0198
     19 C           6.2943    1.2614    0.0000 C.2     1  UNL1       -0.0449
     20 C           2.4915   -2.1763    0.0000 C.3     1  UNL1       -0.0372
     21 C           2.0000   -1.2649    0.0000 C.3     1  UNL1       -0.0514
     22 C           5.9497   -1.5359    0.0000 C.2     1  UNL1        0.3087
     23 C           4.5212   -2.2128    0.0000 C.2     1  UNL1        0.3134
     24 C           3.5088   -3.1982    0.0000 C.3     1  UNL1       -0.0491
     25 C           7.2693    1.4840    0.0000 C.2     1  UNL1       -0.0967
     26 H           3.5041    0.6553    0.0000 H       1  UNL1        0.0313
     27 H           4.0319   -2.1584    0.0000 H       1  UNL1        0.0326
     28 H           4.9616   -1.7478    0.0000 H       1  UNL1        0.0422
     29 H           4.6562    1.4964    0.0000 H       1  UNL1        0.0302
     30 H           4.4940    0.7856    0.0000 H       1  UNL1        0.0302
     31 H           6.2098   -0.3180    0.0000 H       1  UNL1        0.0316
     32 H           6.6918    0.2865    0.0000 H       1  UNL1        0.0316
     33 H           3.6608    1.7462    0.0000 H       1  UNL1        0.0269
     34 H           3.4888    0.9924    0.0000 H       1  UNL1        0.0269
     35 H           2.6835    0.2178    0.0000 H       1  UNL1        0.0272
     36 H           1.9765   -0.1530    0.0000 H       1  UNL1        0.0272
     37 H           5.1693   -0.2981    0.0000 H       1  UNL1        0.0703
     38 H           4.4994    0.1301    0.0000 H       1  UNL1        0.0703
     39 H           4.8088    2.6477    0.0000 H       1  UNL1        0.0296
     40 H           4.1123    2.3123    0.0000 H       1  UNL1        0.0296
     41 H           1.9034   -2.3728    0.0000 H       1  UNL1        0.0276
     42 H           2.5845   -2.7892    0.0000 H       1  UNL1        0.0276
     43 H           1.5390   -0.8503    0.0000 H       1  UNL1        0.0266
     44 H           1.5127   -1.6482    0.0000 H       1  UNL1        0.0266
     45 H           2.8889   -3.1871    0.0000 H       1  UNL1        0.0240
     46 H           3.4977   -3.8181    0.0000 H       1  UNL1        0.0240
     47 H           4.1287   -3.2093    0.0000 H       1  UNL1        0.0240
     48 H           6.4858    3.2009    0.0000 H       1  UNL1        0.2106
     49 H           7.6910    1.0295    0.0000 H       1  UNL1        0.0535
     50 H           7.4520    2.0764    0.0000 H       1  UNL1        0.0535
     51 H           7.3240   -1.1958    0.0000 H       1  UNL1        0.2951
@<TRIPOS>BOND
     1     1    17    1
     2     1    23    1
     3    13     2    1
     4     2    48    1
     5     3    22    1
     6     3    51    1
     7     4    22    2
     8     5    23    2
     9     6     8    1
    10     6    10    1
    11     6    11    1
    12     6    14    1
    13     7     8    1
    14     7     9    1
    15     7    16    1
    16     7    17    1
    17     8    15    1
    18     8    26    1
    19     9    10    1
    20     9    12    1
    21     9    27    1
    22    10    22    1
    23    10    28    1
    24    11    13    1
    25    11    29    1
    26    11    30    1
    27    12    20    1
    28    12    23    1
    29    12    24    1
    30    13    18    1
    31    13    19    1
    32    14    19    1
    33    14    31    1
    34    14    32    1
    35    15    18    1
    36    15    33    1
    37    15    34    1
    38    16    21    1
    39    16    35    1
    40    16    36    1
    41    17    37    1
    42    17    38    1
    43    18    39    1
    44    18    40    1
    45    19    25    2
    46    20    21    1
    47    20    41    1
    48    20    42    1
    49    21    43    1
    50    21    44    1
    51    24    45    1
    52    24    46    1
    53    24    47    1
    54    25    49    1
    55    25    50    1
