@<TRIPOS>MOLECULE
IMPHY007232
 30 33 0 0 0
SMALL
GASTEIGER

@<TRIPOS>ATOM
      1 N           5.6782   -0.6627    0.0000 N.ar    1  UNL1       -0.3412
      2 N           4.5124    1.6137    0.0000 N.ar    1  UNL1       -0.2451
      3 C           5.0091    0.0805    0.0000 C.ar    1  UNL1        0.0770
      4 C           5.3181    1.0315    0.0000 C.ar    1  UNL1        0.0892
      5 C           4.0150    0.0830    0.0000 C.ar    1  UNL1        0.0259
      6 C           6.6564   -0.4548    0.0000 C.ar    1  UNL1        0.0493
      7 C           6.9654    0.4963    0.0000 C.ar    1  UNL1        0.0006
      8 C           3.7086    1.0287    0.0000 C.ar    1  UNL1        0.0738
      9 C           6.2962    1.2394    0.0000 C.ar    1  UNL1       -0.0251
     10 C           5.3692   -1.6137    0.0000 C.3     1  UNL1        0.0125
     11 C           3.3334   -0.6965    0.0000 C.ar    1  UNL1       -0.0505
     12 C           7.3413   -1.2395    0.0000 C.ar    1  UNL1       -0.0376
     13 C           7.9808    0.7285    0.0000 C.ar    1  UNL1       -0.0526
     14 C           2.6994    1.2605    0.0000 C.ar    1  UNL1       -0.0357
     15 C           8.3618   -1.0308    0.0000 C.ar    1  UNL1       -0.0598
     16 C           2.3191   -0.4881    0.0000 C.ar    1  UNL1       -0.0610
     17 C           8.6837   -0.0401    0.0000 C.ar    1  UNL1       -0.0611
     18 C           2.0000    0.4970    0.0000 C.ar    1  UNL1       -0.0597
     19 H           6.4878    1.8291    0.0000 H       1  UNL1        0.0646
     20 H           4.7795   -1.4222    0.0000 H       1  UNL1        0.0456
     21 H           5.1776   -2.2034    0.0000 H       1  UNL1        0.0456
     22 H           5.9588   -1.8053    0.0000 H       1  UNL1        0.0456
     23 H           3.5313   -1.2840    0.0000 H       1  UNL1        0.0625
     24 H           7.1429   -1.8269    0.0000 H       1  UNL1        0.0638
     25 H           8.1655    1.3204    0.0000 H       1  UNL1        0.0624
     26 H           2.5152    1.8525    0.0000 H       1  UNL1        0.0639
     27 H           8.7749   -1.4931    0.0000 H       1  UNL1        0.0618
     28 H           1.9056   -0.9501    0.0000 H       1  UNL1        0.0618
     29 H           9.2897    0.0911    0.0000 H       1  UNL1        0.0618
     30 H           1.3942    0.6287    0.0000 H       1  UNL1        0.0618
@<TRIPOS>BOND
     1     1     3   ar
     2     1     6   ar
     3     1    10    1
     4     2     4   ar
     5     2     8   ar
     6     3     4    1
     7     3     5   ar
     8     4     9   ar
     9     5     8   ar
    10     5    11   ar
    11     6     7   ar
    12     6    12   ar
    13     7     9   ar
    14     7    13   ar
    15     8    14   ar
    16     9    19    1
    17    10    20    1
    18    10    21    1
    19    10    22    1
    20    11    16   ar
    21    11    23    1
    22    12    15   ar
    23    12    24    1
    24    13    17   ar
    25    13    25    1
    26    14    18   ar
    27    14    26    1
    28    15    17   ar
    29    15    27    1
    30    16    18   ar
    31    16    28    1
    32    17    29    1
    33    18    30    1
