@<TRIPOS>MOLECULE
IMPHY014364
 85 88 0 0 0
SMALL
GASTEIGER

@<TRIPOS>ATOM
      1 O           9.7942   -2.7500    0.0000 O.3     1  UNL1       -0.3378
      2 O           9.7942    0.2500    0.0000 O.3     1  UNL1       -0.3384
      3 O          11.5263   -2.7500    0.0000 O.3     1  UNL1       -0.3431
      4 O           8.0622   -1.7500    0.0000 O.3     1  UNL1       -0.4528
      5 O          11.5263   -1.7500    0.0000 O.3     1  UNL1       -0.4536
      6 O          11.5263    0.2500    0.0000 O.3     1  UNL1       -0.3475
      7 O           9.7942   -4.7500    0.0000 O.3     1  UNL1       -0.3841
      8 O          11.5263   -5.7500    0.0000 O.3     1  UNL1       -0.3864
      9 O          13.2583   -4.7500    0.0000 O.3     1  UNL1       -0.3866
     10 O           8.0622    1.2500    0.0000 O.3     1  UNL1       -0.3923
     11 O           7.1962   -0.2500    0.0000 O.2     1  UNL1       -0.2456
     12 O          12.3923   -0.2500    0.0000 O.2     1  UNL1       -0.2512
     13 O          14.1244    4.7500    0.0000 O.3     1  UNL1       -0.5033
     14 O          12.3923    5.7500    0.0000 O.3     1  UNL1       -0.5033
     15 O           2.0000   -1.2500    0.0000 O.3     1  UNL1       -0.5033
     16 O           2.0000   -3.2500    0.0000 O.3     1  UNL1       -0.5033
     17 C           9.7942   -1.7500    0.0000 C.3     1  UNL1        0.1426
     18 C           8.9282   -1.2500    0.0000 C.3     1  UNL1        0.1612
     19 C          10.6603   -1.2500    0.0000 C.3     1  UNL1        0.1830
     20 C           8.9282   -0.2500    0.0000 C.3     1  UNL1        0.1241
     21 C          10.6603   -3.2500    0.0000 C.3     1  UNL1        0.1884
     22 C          10.6603   -0.2500    0.0000 C.3     1  UNL1        0.1993
     23 C          10.6603   -4.2500    0.0000 C.3     1  UNL1        0.1341
     24 C          11.5263   -4.7500    0.0000 C.3     1  UNL1        0.1140
     25 C          12.3923   -4.2500    0.0000 C.3     1  UNL1        0.1095
     26 C          12.3923   -3.2500    0.0000 C.3     1  UNL1        0.0873
     27 C           8.0622    0.2500    0.0000 C.3     1  UNL1        0.0741
     28 C          13.2583   -2.7500    0.0000 C.3     1  UNL1       -0.0361
     29 C          11.5263    1.2500    0.0000 C.3     1  UNL1        0.0548
     30 C           7.1962   -1.2500    0.0000 C.2     1  UNL1        0.3324
     31 C          12.3923   -1.2500    0.0000 C.2     1  UNL1        0.3044
     32 C          12.3923    1.7500    0.0000 C.3     1  UNL1       -0.0039
     33 C          13.2583   -1.7500    0.0000 C.3     1  UNL1        0.0332
     34 C           6.3301   -1.7500    0.0000 C.2     1  UNL1        0.0231
     35 C          12.3923    2.7500    0.0000 C.ar    1  UNL1       -0.0415
     36 C           5.4641   -1.2500    0.0000 C.2     1  UNL1       -0.0477
     37 C          13.2583    3.2500    0.0000 C.ar    1  UNL1       -0.0133
     38 C          11.5263    3.2500    0.0000 C.ar    1  UNL1       -0.0548
     39 C          13.2583    4.2500    0.0000 C.ar    1  UNL1        0.1585
     40 C          11.5263    4.2500    0.0000 C.ar    1  UNL1       -0.0163
     41 C           4.5981   -1.7500    0.0000 C.ar    1  UNL1       -0.0211
     42 C          12.3923    4.7500    0.0000 C.ar    1  UNL1        0.1582
     43 C           3.7320   -1.2500    0.0000 C.ar    1  UNL1       -0.0094
     44 C           4.5981   -2.7500    0.0000 C.ar    1  UNL1       -0.0509
     45 C           2.8660   -1.7500    0.0000 C.ar    1  UNL1        0.1588
     46 C           3.7320   -3.2500    0.0000 C.ar    1  UNL1       -0.0160
     47 C           2.8660   -2.7500    0.0000 C.ar    1  UNL1        0.1582
     48 H          10.3312   -2.0600    0.0000 H       1  UNL1        0.0674
     49 H           8.9282   -1.8700    0.0000 H       1  UNL1        0.0789
     50 H          10.6603   -1.8700    0.0000 H       1  UNL1        0.0813
     51 H           8.9282    0.3700    0.0000 H       1  UNL1        0.0658
     52 H          10.6603   -2.6300    0.0000 H       1  UNL1        0.0938
     53 H          11.1972   -0.5600    0.0000 H       1  UNL1        0.0949
     54 H          10.6603   -4.8700    0.0000 H       1  UNL1        0.0671
     55 H          12.0632   -5.0600    0.0000 H       1  UNL1        0.0648
     56 H          12.9292   -3.9400    0.0000 H       1  UNL1        0.0646
     57 H          12.3923   -2.6300    0.0000 H       1  UNL1        0.0621
     58 H           7.4516    0.3577    0.0000 H       1  UNL1        0.0584
     59 H           7.8501   -0.3326    0.0000 H       1  UNL1        0.0584
     60 H          13.5683   -3.2869    0.0000 H       1  UNL1        0.0255
     61 H          13.7953   -2.4400    0.0000 H       1  UNL1        0.0255
     62 H          12.9483   -2.2131    0.0000 H       1  UNL1        0.0255
     63 H           9.7942   -5.3700    0.0000 H       1  UNL1        0.2101
     64 H          12.0632   -6.0600    0.0000 H       1  UNL1        0.2100
     65 H          13.7953   -4.4400    0.0000 H       1  UNL1        0.2100
     66 H          11.3142    1.8326    0.0000 H       1  UNL1        0.0564
     67 H          10.9157    1.1423    0.0000 H       1  UNL1        0.0564
     68 H           7.5252    1.5600    0.0000 H       1  UNL1        0.2095
     69 H          12.6044    1.1674    0.0000 H       1  UNL1        0.0335
     70 H          13.0029    1.8577    0.0000 H       1  UNL1        0.0335
     71 H          12.9483   -2.2869    0.0000 H       1  UNL1        0.0342
     72 H          13.7953   -2.0600    0.0000 H       1  UNL1        0.0342
     73 H          13.5683   -1.2131    0.0000 H       1  UNL1        0.0342
     74 H           6.3301   -2.3700    0.0000 H       1  UNL1        0.0689
     75 H           5.4641   -0.6300    0.0000 H       1  UNL1        0.0626
     76 H          13.7953    2.9400    0.0000 H       1  UNL1        0.0658
     77 H          10.9893    2.9400    0.0000 H       1  UNL1        0.0621
     78 H          10.9893    4.5600    0.0000 H       1  UNL1        0.0655
     79 H           3.7320   -0.6300    0.0000 H       1  UNL1        0.0661
     80 H           5.1350   -3.0600    0.0000 H       1  UNL1        0.0625
     81 H          14.6613    4.4400    0.0000 H       1  UNL1        0.2923
     82 H          11.8554    6.0600    0.0000 H       1  UNL1        0.2923
     83 H           3.7320   -3.8700    0.0000 H       1  UNL1        0.0655
     84 H           2.0000   -0.6300    0.0000 H       1  UNL1        0.2923
     85 H           2.0000   -3.8700    0.0000 H       1  UNL1        0.2923
@<TRIPOS>BOND
     1    17     1    1
     2    21     1    1
     3     2    20    1
     4     2    22    1
     5     3    21    1
     6     3    26    1
     7    18     4    1
     8     4    30    1
     9    19     5    1
    10     5    31    1
    11    22     6    1
    12     6    29    1
    13    23     7    1
    14     7    63    1
    15    24     8    1
    16     8    64    1
    17    25     9    1
    18     9    65    1
    19    10    27    1
    20    10    68    1
    21    11    30    2
    22    12    31    2
    23    13    39    1
    24    13    81    1
    25    14    42    1
    26    14    82    1
    27    15    45    1
    28    15    84    1
    29    16    47    1
    30    16    85    1
    31    17    18    1
    32    17    19    1
    33    17    48    1
    34    18    20    1
    35    18    49    1
    36    19    22    1
    37    19    50    1
    38    20    27    1
    39    20    51    1
    40    21    23    1
    41    21    52    1
    42    22    53    1
    43    23    24    1
    44    23    54    1
    45    24    25    1
    46    24    55    1
    47    25    26    1
    48    25    56    1
    49    26    28    1
    50    26    57    1
    51    27    58    1
    52    27    59    1
    53    28    60    1
    54    28    61    1
    55    28    62    1
    56    29    32    1
    57    29    66    1
    58    29    67    1
    59    30    34    1
    60    31    33    1
    61    32    35    1
    62    32    69    1
    63    32    70    1
    64    33    71    1
    65    33    72    1
    66    33    73    1
    67    34    36    2
    68    34    74    1
    69    35    37   ar
    70    35    38   ar
    71    36    41    1
    72    36    75    1
    73    37    39   ar
    74    37    76    1
    75    38    40   ar
    76    38    77    1
    77    39    42   ar
    78    40    42   ar
    79    40    78    1
    80    41    43   ar
    81    41    44   ar
    82    43    45   ar
    83    43    79    1
    84    44    46   ar
    85    44    80    1
    86    45    47   ar
    87    46    47   ar
    88    46    83    1
