@<TRIPOS>MOLECULE
IMPHY010194
 43 46 0 0 0
SMALL
GASTEIGER

@<TRIPOS>ATOM
      1 O           6.9006    0.7334    0.0000 O.3     1  UNL1       -0.4823
      2 O          10.4366    0.7056    0.0000 O.3     1  UNL1       -0.4814
      3 O           8.6605   -2.3013    0.0000 O.3     1  UNL1       -0.5058
      4 O           6.9121   -2.3359    0.0000 O.2     1  UNL1       -0.2917
      5 O           2.5381    2.2329    0.0000 O.3     1  UNL1       -0.5068
      6 C           5.9945    0.2195    0.0000 C.3     1  UNL1        0.1322
      7 C          10.4446    1.7472    0.0000 C.3     1  UNL1        0.1235
      8 C           7.7945    0.1987    0.0000 C.ar    1  UNL1        0.1460
      9 C           8.6605    0.6987    0.0000 C.ar    1  UNL1        0.0591
     10 C           5.9945   -0.8221    0.0000 C.3     1  UNL1        0.0520
     11 C           7.7945   -0.8013    0.0000 C.ar    1  UNL1        0.1012
     12 C           9.5266    0.1987    0.0000 C.ar    1  UNL1        0.1359
     13 C           6.9006   -1.3359    0.0000 C.2     1  UNL1        0.1740
     14 C           9.5425    2.2680    0.0000 C.2     1  UNL1       -0.0408
     15 C           8.6445    1.7402    0.0000 C.2     1  UNL1       -0.0478
     16 C           5.1304    0.7229    0.0000 C.ar    1  UNL1       -0.0067
     17 C           8.6605   -1.3013    0.0000 C.ar    1  UNL1        0.1344
     18 C           9.5266   -0.8013    0.0000 C.ar    1  UNL1        0.0231
     19 C          10.9479    2.6113    0.0000 C.3     1  UNL1       -0.0215
     20 C          11.4446    1.7433    0.0000 C.3     1  UNL1       -0.0215
     21 C           5.1343    1.7229    0.0000 C.ar    1  UNL1       -0.0516
     22 C           4.2625    0.2262    0.0000 C.ar    1  UNL1       -0.0516
     23 C           4.2702    2.2262    0.0000 C.ar    1  UNL1       -0.0198
     24 C           3.3984    0.7296    0.0000 C.ar    1  UNL1       -0.0198
     25 C           3.4022    1.7296    0.0000 C.ar    1  UNL1        0.1169
     26 H           5.9981    0.8395    0.0000 H       1  UNL1        0.0789
     27 H           5.3836   -0.7160    0.0000 H       1  UNL1        0.0385
     28 H           5.7854   -1.4058    0.0000 H       1  UNL1        0.0385
     29 H           9.5401    2.8880    0.0000 H       1  UNL1        0.0611
     30 H           8.1040    2.0440    0.0000 H       1  UNL1        0.0624
     31 H          10.0635   -1.1113    0.0000 H       1  UNL1        0.0691
     32 H          11.4837    2.2992    0.0000 H       1  UNL1        0.0271
     33 H          11.2600    3.1470    0.0000 H       1  UNL1        0.0271
     34 H          10.4122    2.9233    0.0000 H       1  UNL1        0.0271
     35 H          11.4422    1.1233    0.0000 H       1  UNL1        0.0271
     36 H          12.0646    1.7409    0.0000 H       1  UNL1        0.0271
     37 H          11.4470    2.3633    0.0000 H       1  UNL1        0.0271
     38 H           5.6724    2.0308    0.0000 H       1  UNL1        0.0623
     39 H           4.2601   -0.3938    0.0000 H       1  UNL1        0.0623
     40 H           4.2726    2.8462    0.0000 H       1  UNL1        0.0654
     41 H           2.8602    0.4216    0.0000 H       1  UNL1        0.0654
     42 H           9.1975   -2.6113    0.0000 H       1  UNL1        0.2922
     43 H           2.0000    1.9250    0.0000 H       1  UNL1        0.2921
@<TRIPOS>BOND
     1     1     6    1
     2     1     8    1
     3     2     7    1
     4     2    12    1
     5     3    17    1
     6     3    42    1
     7     4    13    2
     8     5    25    1
     9     5    43    1
    10     6    10    1
    11     6    16    1
    12     6    26    1
    13     7    14    1
    14     7    19    1
    15     7    20    1
    16     8     9   ar
    17     8    11   ar
    18     9    12   ar
    19     9    15    1
    20    10    13    1
    21    10    27    1
    22    10    28    1
    23    11    13    1
    24    11    17   ar
    25    12    18   ar
    26    14    15    2
    27    14    29    1
    28    15    30    1
    29    16    21   ar
    30    16    22   ar
    31    17    18   ar
    32    18    31    1
    33    19    32    1
    34    19    33    1
    35    19    34    1
    36    20    35    1
    37    20    36    1
    38    20    37    1
    39    21    23   ar
    40    21    38    1
    41    22    24   ar
    42    22    39    1
    43    23    25   ar
    44    23    40    1
    45    24    25   ar
    46    24    41    1
