@<TRIPOS>MOLECULE
IMPHY004677
 17 18 0 0 0
SMALL
GASTEIGER

@<TRIPOS>ATOM
      1 O           4.9889    1.5107    0.0000 O.3     1  UNL1       -0.5047
      2 N           4.6783   -1.0493    0.0000 N.ar    1  UNL1       -0.3576
      3 C           3.7320    0.2555    0.0000 C.ar    1  UNL1        0.0411
      4 C           3.7320   -0.7445    0.0000 C.ar    1  UNL1        0.0501
      5 C           4.6783    0.5602    0.0000 C.ar    1  UNL1        0.1418
      6 C           5.2619   -0.2445    0.0000 C.ar    1  UNL1        0.0447
      7 C           2.8660    0.7555    0.0000 C.ar    1  UNL1       -0.0491
      8 C           2.8660   -1.2445    0.0000 C.ar    1  UNL1       -0.0377
      9 C           2.0000    0.2555    0.0000 C.ar    1  UNL1       -0.0610
     10 C           2.0000   -0.7445    0.0000 C.ar    1  UNL1       -0.0598
     11 H           4.8709   -1.6386    0.0000 H       1  UNL1        0.1654
     12 H           5.8819   -0.2445    0.0000 H       1  UNL1        0.0844
     13 H           2.8660    1.3755    0.0000 H       1  UNL1        0.0625
     14 H           2.8660   -1.8645    0.0000 H       1  UNL1        0.0638
     15 H           1.4631    0.5655    0.0000 H       1  UNL1        0.0618
     16 H           1.4631   -1.0545    0.0000 H       1  UNL1        0.0618
     17 H           5.5956    1.6386    0.0000 H       1  UNL1        0.2922
@<TRIPOS>BOND
     1     1     5    1
     2     1    17    1
     3     2     4   ar
     4     2     6   ar
     5     2    11    1
     6     3     4   ar
     7     3     5   ar
     8     3     7   ar
     9     4     8   ar
    10     5     6   ar
    11     6    12    1
    12     7     9   ar
    13     7    13    1
    14     8    10   ar
    15     8    14    1
    16     9    10   ar
    17     9    15    1
    18    10    16    1
