@<TRIPOS>MOLECULE
IMPHY015584
 100 100 0 0 0
SMALL
GASTEIGER

@<TRIPOS>ATOM
      1 SI          3.8320    0.7500    0.0000 Si      1  UNL1        0.0000
      2 SI          4.6980    2.2500    0.0000 Si      1  UNL1        0.0000
      3 SI          2.9659   -0.7500    0.0000 Si      1  UNL1        0.0000
      4 SI          6.4300    2.2500    0.0000 Si      1  UNL1        0.0000
      5 SI          3.8320   -2.2500    0.0000 Si      1  UNL1        0.0000
      6 SI          8.1621    2.2500    0.0000 Si      1  UNL1        0.0000
      7 SI          5.5640   -2.2500    0.0000 Si      1  UNL1        0.0000
      8 SI          9.0281    0.7500    0.0000 Si      1  UNL1        0.0000
      9 SI          7.2960   -2.2500    0.0000 Si      1  UNL1        0.0000
     10 SI          8.1621   -0.7500    0.0000 Si      1  UNL1        0.0000
     11 O           4.6980    1.2500    0.0000 O.3     1  UNL1        0.0000
     12 O           3.8320   -0.2500    0.0000 O.3     1  UNL1        0.0000
     13 O           5.5640    2.7500    0.0000 O.3     1  UNL1        0.0000
     14 O           2.9659   -1.7500    0.0000 O.3     1  UNL1        0.0000
     15 O           7.2960    2.7500    0.0000 O.3     1  UNL1        0.0000
     16 O           4.6980   -1.7500    0.0000 O.3     1  UNL1        0.0000
     17 O           8.1621    1.2500    0.0000 O.3     1  UNL1        0.0000
     18 O           6.4300   -1.7500    0.0000 O.3     1  UNL1        0.0000
     19 O           9.0281   -0.2500    0.0000 O.3     1  UNL1        0.0000
     20 O           8.1621   -1.7500    0.0000 O.3     1  UNL1        0.0000
     21 C           3.1248    1.4571    0.0000 C.3     1  UNL1        0.0000
     22 C           2.8358    0.6628    0.0000 C.3     1  UNL1        0.0000
     23 C           4.4392    3.2159    0.0000 C.3     1  UNL1        0.0000
     24 C           3.7320    2.5088    0.0000 C.3     1  UNL1        0.0000
     25 C           2.0000   -1.0088    0.0000 C.3     1  UNL1        0.0000
     26 C           2.2588   -0.0429    0.0000 C.3     1  UNL1        0.0000
     27 C           5.7230    1.5428    0.0000 C.3     1  UNL1        0.0000
     28 C           6.6888    1.2841    0.0000 C.3     1  UNL1        0.0000
     29 C           3.1249   -2.9572    0.0000 C.3     1  UNL1        0.0000
     30 C           4.0908   -3.2159    0.0000 C.3     1  UNL1        0.0000
     31 C           8.4209    3.2159    0.0000 C.3     1  UNL1        0.0000
     32 C           9.1280    2.5088    0.0000 C.3     1  UNL1        0.0000
     33 C           4.9905   -3.0692    0.0000 C.3     1  UNL1        0.0000
     34 C           5.8228   -3.2159    0.0000 C.3     1  UNL1        0.0000
     35 C           9.9940    0.4912    0.0000 C.3     1  UNL1        0.0000
     36 C           9.7352    1.4571    0.0000 C.3     1  UNL1        0.0000
     37 C           8.0032   -2.9571    0.0000 C.3     1  UNL1        0.0000
     38 C           7.0372   -3.2159    0.0000 C.3     1  UNL1        0.0000
     39 C           7.4550   -0.0429    0.0000 C.3     1  UNL1        0.0000
     40 C           7.1962   -1.0088    0.0000 C.3     1  UNL1        0.0000
     41 H           3.5632    1.8955    0.0000 H       1  UNL1        0.0000
     42 H           2.6864    1.8955    0.0000 H       1  UNL1        0.0000
     43 H           2.6864    1.0187    0.0000 H       1  UNL1        0.0000
     44 H           2.7817    1.2805    0.0000 H       1  UNL1        0.0000
     45 H           2.2181    0.6088    0.0000 H       1  UNL1        0.0000
     46 H           2.8898    0.0452    0.0000 H       1  UNL1        0.0000
     47 H           5.0380    3.3764    0.0000 H       1  UNL1        0.0000
     48 H           4.2787    3.8148    0.0000 H       1  UNL1        0.0000
     49 H           3.8403    3.0555    0.0000 H       1  UNL1        0.0000
     50 H           3.8925    3.1077    0.0000 H       1  UNL1        0.0000
     51 H           3.1332    2.6693    0.0000 H       1  UNL1        0.0000
     52 H           3.5716    1.9100    0.0000 H       1  UNL1        0.0000
     53 H           1.8395   -0.4099    0.0000 H       1  UNL1        0.0000
     54 H           1.4011   -1.1693    0.0000 H       1  UNL1        0.0000
     55 H           2.1605   -1.6077    0.0000 H       1  UNL1        0.0000
     56 H           2.6972    0.3955    0.0000 H       1  UNL1        0.0000
     57 H           1.8204    0.3955    0.0000 H       1  UNL1        0.0000
     58 H           1.8204   -0.4813    0.0000 H       1  UNL1        0.0000
     59 H           5.2845    1.9812    0.0000 H       1  UNL1        0.0000
     60 H           5.2846    1.1044    0.0000 H       1  UNL1        0.0000
     61 H           6.1614    1.1045    0.0000 H       1  UNL1        0.0000
     62 H           6.0900    1.1236    0.0000 H       1  UNL1        0.0000
     63 H           6.8493    0.6852    0.0000 H       1  UNL1        0.0000
     64 H           7.2877    1.4445    0.0000 H       1  UNL1        0.0000
     65 H           2.6865   -2.5188    0.0000 H       1  UNL1        0.0000
     66 H           2.6865   -3.3956    0.0000 H       1  UNL1        0.0000
     67 H           3.5633   -3.3955    0.0000 H       1  UNL1        0.0000
     68 H           3.4919   -3.3764    0.0000 H       1  UNL1        0.0000
     69 H           4.2512   -3.8148    0.0000 H       1  UNL1        0.0000
     70 H           4.6896   -3.0555    0.0000 H       1  UNL1        0.0000
     71 H           9.0198    3.0555    0.0000 H       1  UNL1        0.0000
     72 H           8.5814    3.8148    0.0000 H       1  UNL1        0.0000
     73 H           7.8220    3.3764    0.0000 H       1  UNL1        0.0000
     74 H           9.2885    1.9100    0.0000 H       1  UNL1        0.0000
     75 H           9.7269    2.6693    0.0000 H       1  UNL1        0.0000
     76 H           8.9675    3.1077    0.0000 H       1  UNL1        0.0000
     77 H           4.4826   -2.7136    0.0000 H       1  UNL1        0.0000
     78 H           4.6349   -3.5771    0.0000 H       1  UNL1        0.0000
     79 H           5.4984   -3.4248    0.0000 H       1  UNL1        0.0000
     80 H           5.2240   -3.3764    0.0000 H       1  UNL1        0.0000
     81 H           5.9833   -3.8148    0.0000 H       1  UNL1        0.0000
     82 H           6.4217   -3.0555    0.0000 H       1  UNL1        0.0000
     83 H           9.8336   -0.1077    0.0000 H       1  UNL1        0.0000
     84 H          10.5929    0.3307    0.0000 H       1  UNL1        0.0000
     85 H          10.1545    1.0900    0.0000 H       1  UNL1        0.0000
     86 H          10.1736    1.0187    0.0000 H       1  UNL1        0.0000
     87 H          10.1736    1.8955    0.0000 H       1  UNL1        0.0000
     88 H           9.2968    1.8955    0.0000 H       1  UNL1        0.0000
     89 H           7.5648   -3.3955    0.0000 H       1  UNL1        0.0000
     90 H           8.4416   -3.3955    0.0000 H       1  UNL1        0.0000
     91 H           8.4416   -2.5187    0.0000 H       1  UNL1        0.0000
     92 H           6.4384   -3.0555    0.0000 H       1  UNL1        0.0000
     93 H           6.8768   -3.8148    0.0000 H       1  UNL1        0.0000
     94 H           7.6361   -3.3764    0.0000 H       1  UNL1        0.0000
     95 H           7.8934    0.3955    0.0000 H       1  UNL1        0.0000
     96 H           7.0166    0.3955    0.0000 H       1  UNL1        0.0000
     97 H           7.0166   -0.4813    0.0000 H       1  UNL1        0.0000
     98 H           7.0357   -0.4099    0.0000 H       1  UNL1        0.0000
     99 H           6.5973   -1.1693    0.0000 H       1  UNL1        0.0000
    100 H           7.3566   -1.6077    0.0000 H       1  UNL1        0.0000
@<TRIPOS>BOND
     1     1    11    1
     2     1    12    1
     3     1    21    1
     4     1    22    1
     5     2    11    1
     6     2    13    1
     7     2    23    1
     8     2    24    1
     9     3    12    1
    10     3    14    1
    11     3    25    1
    12     3    26    1
    13     4    13    1
    14     4    15    1
    15     4    27    1
    16     4    28    1
    17     5    14    1
    18     5    16    1
    19     5    29    1
    20     5    30    1
    21     6    15    1
    22     6    17    1
    23     6    31    1
    24     6    32    1
    25     7    16    1
    26     7    18    1
    27     7    33    1
    28     7    34    1
    29     8    17    1
    30     8    19    1
    31     8    35    1
    32     8    36    1
    33     9    18    1
    34     9    20    1
    35     9    37    1
    36     9    38    1
    37    10    19    1
    38    10    20    1
    39    10    39    1
    40    10    40    1
    41    21    41    1
    42    21    42    1
    43    21    43    1
    44    22    44    1
    45    22    45    1
    46    22    46    1
    47    23    47    1
    48    23    48    1
    49    23    49    1
    50    24    50    1
    51    24    51    1
    52    24    52    1
    53    25    53    1
    54    25    54    1
    55    25    55    1
    56    26    56    1
    57    26    57    1
    58    26    58    1
    59    27    59    1
    60    27    60    1
    61    27    61    1
    62    28    62    1
    63    28    63    1
    64    28    64    1
    65    29    65    1
    66    29    66    1
    67    29    67    1
    68    30    68    1
    69    30    69    1
    70    30    70    1
    71    31    71    1
    72    31    72    1
    73    31    73    1
    74    32    74    1
    75    32    75    1
    76    32    76    1
    77    33    77    1
    78    33    78    1
    79    33    79    1
    80    34    80    1
    81    34    81    1
    82    34    82    1
    83    35    83    1
    84    35    84    1
    85    35    85    1
    86    36    86    1
    87    36    87    1
    88    36    88    1
    89    37    89    1
    90    37    90    1
    91    37    91    1
    92    38    92    1
    93    38    93    1
    94    38    94    1
    95    39    95    1
    96    39    96    1
    97    39    97    1
    98    40    98    1
    99    40    99    1
   100    40   100    1
