@<TRIPOS>MOLECULE
IMPHY002925
 39 41 0 0 0
SMALL
GASTEIGER

@<TRIPOS>ATOM
      1 C           4.5725   -1.0958    0.0000 C.3     1  UNL1       -0.0291
      2 C           3.7435   -0.5366    0.0000 C.3     1  UNL1       -0.0343
      3 C           5.7936   -0.2301    0.0000 C.3     1  UNL1       -0.0107
      4 C           2.9617   -1.1506    0.0000 C.3     1  UNL1       -0.0407
      5 C           4.0191    0.4247    0.0000 C.3     1  UNL1       -0.0432
      6 C           4.2960   -2.0506    0.0000 C.3     1  UNL1       -0.0489
      7 C           6.0524    0.7358    0.0000 C.3     1  UNL1       -0.0198
      8 C           4.8158    1.5845    0.0000 C.3     1  UNL1       -0.0434
      9 C           3.3025   -2.0845    0.0000 C.3     1  UNL1       -0.0499
     10 C           5.6818    2.0845    0.0000 C.3     1  UNL1       -0.0457
     11 C           7.1925   -0.7389    0.0000 C.2     1  UNL1       -0.0786
     12 C           7.4513    0.2270    0.0000 C.2     1  UNL1       -0.0729
     13 C           5.5347   -1.1960    0.0000 C.3     1  UNL1       -0.0558
     14 C           2.0000   -0.8766    0.0000 C.3     1  UNL1       -0.0622
     15 C           8.3173    0.7270    0.0000 C.3     1  UNL1       -0.0435
     16 H           5.0779   -1.4550    0.0000 H       1  UNL1        0.0312
     17 H           3.2290   -0.1905    0.0000 H       1  UNL1        0.0306
     18 H           2.5395   -1.6046    0.0000 H       1  UNL1        0.0301
     19 H           4.0141    1.0447    0.0000 H       1  UNL1        0.0274
     20 H           3.4048    0.5085    0.0000 H       1  UNL1        0.0274
     21 H           4.2519   -2.6690    0.0000 H       1  UNL1        0.0268
     22 H           4.9064   -2.1595    0.0000 H       1  UNL1        0.0268
     23 H           5.9914    0.1188    0.0000 H       1  UNL1        0.0346
     24 H           4.5110    2.1244    0.0000 H       1  UNL1        0.0274
     25 H           4.2729    1.2850    0.0000 H       1  UNL1        0.0274
     26 H           2.7010   -2.2346    0.0000 H       1  UNL1        0.0268
     27 H           3.3886   -2.6984    0.0000 H       1  UNL1        0.0268
     28 H           6.2635    2.2990    0.0000 H       1  UNL1        0.0271
     29 H           5.4186    2.6458    0.0000 H       1  UNL1        0.0271
     30 H           7.4788   -1.2888    0.0000 H       1  UNL1        0.0577
     31 H           4.9359   -1.0356    0.0000 H       1  UNL1        0.0238
     32 H           5.3743   -1.7949    0.0000 H       1  UNL1        0.0238
     33 H           6.1336   -1.3565    0.0000 H       1  UNL1        0.0238
     34 H           2.1699   -0.2804    0.0000 H       1  UNL1        0.0233
     35 H           1.4037   -0.7068    0.0000 H       1  UNL1        0.0233
     36 H           1.8301   -1.4729    0.0000 H       1  UNL1        0.0233
     37 H           8.6273    0.1901    0.0000 H       1  UNL1        0.0274
     38 H           8.8543    1.0370    0.0000 H       1  UNL1        0.0274
     39 H           8.0073    1.2639    0.0000 H       1  UNL1        0.0274
@<TRIPOS>BOND
     1     1     2    1
     2     1     3    1
     3     1     6    1
     4     1    16    1
     5     2     4    1
     6     2     5    1
     7     2    17    1
     8     3     8    1
     9     3    11    1
    10     3    13    1
    11     4     9    1
    12     4    14    1
    13     4    18    1
    14     5     7    1
    15     5    19    1
    16     5    20    1
    17     6     9    1
    18     6    21    1
    19     6    22    1
    20     7    10    1
    21     7    12    1
    22     7    23    1
    23     8    10    1
    24     8    24    1
    25     8    25    1
    26     9    26    1
    27     9    27    1
    28    10    28    1
    29    10    29    1
    30    11    12    2
    31    11    30    1
    32    12    15    1
    33    13    31    1
    34    13    32    1
    35    13    33    1
    36    14    34    1
    37    14    35    1
    38    14    36    1
    39    15    37    1
    40    15    38    1
    41    15    39    1
