@<TRIPOS>MOLECULE
IMPHY015045
 101 109 0 0 0
SMALL
GASTEIGER

@<TRIPOS>ATOM
      1 O           9.5412   -0.8983    0.0000 O.3     1  UNL1       -0.4808
      2 O           6.7878   -3.7637    0.0000 O.3     1  UNL1       -0.4811
      3 O          11.2732    1.1017    0.0000 O.3     1  UNL1       -0.3868
      4 O           8.2175    2.6108    0.0000 O.3     1  UNL1       -0.4808
      5 O           5.8158   -1.3029    0.0000 O.3     1  UNL1       -0.3868
      6 O           7.4501    2.0800    0.0000 O.3     1  UNL1       -0.5062
      7 O           5.8752   -0.4229    0.0000 O.3     1  UNL1       -0.5062
      8 O           7.2583    5.1509    0.0000 O.3     1  UNL1       -0.3875
      9 O          11.8077    1.8731    0.0000 O.3     1  UNL1       -0.5062
     10 O           9.8732   -1.7662    0.0000 O.3     1  UNL1       -0.5062
     11 O          10.9093    4.8605    0.0000 O.3     1  UNL1       -0.5063
     12 O          10.1108   -4.9554    0.0000 O.3     1  UNL1       -0.5065
     13 O          12.1393   -3.3983    0.0000 O.3     1  UNL1       -0.5033
     14 O          13.8713   -2.3983    0.0000 O.3     1  UNL1       -0.5033
     15 O           3.5085   -5.2624    0.0000 O.3     1  UNL1       -0.5033
     16 O           2.2053   -3.7452    0.0000 O.3     1  UNL1       -0.5033
     17 O           4.2821    4.5758    0.0000 O.3     1  UNL1       -0.5033
     18 O           3.6054    2.6939    0.0000 O.3     1  UNL1       -0.5033
     19 C           9.5412    1.1017    0.0000 C.3     1  UNL1        0.0528
     20 C          10.4072    0.6017    0.0000 C.3     1  UNL1        0.1074
     21 C           7.4501   -1.8765    0.0000 C.3     1  UNL1        0.0528
     22 C           8.6752    0.6017    0.0000 C.ar    1  UNL1        0.0463
     23 C          10.4072   -0.3983    0.0000 C.3     1  UNL1        0.1519
     24 C           8.6752   -0.3983    0.0000 C.ar    1  UNL1        0.1361
     25 C           7.7812   -0.9329    0.0000 C.ar    1  UNL1        0.0463
     26 C           6.4674   -2.0616    0.0000 C.3     1  UNL1        0.1074
     27 C           9.8832    2.0414    0.0000 C.ar    1  UNL1        0.0463
     28 C           6.1363   -3.0052    0.0000 C.3     1  UNL1        0.1518
     29 C           8.1017   -2.6351    0.0000 C.ar    1  UNL1        0.0461
     30 C           9.2404    2.8075    0.0000 C.ar    1  UNL1        0.1355
     31 C           7.7812    1.1364    0.0000 C.ar    1  UNL1        0.1277
     32 C           6.8752   -0.4191    0.0000 C.ar    1  UNL1        0.1277
     33 C           9.5824    3.7472    0.0000 C.ar    1  UNL1        0.0387
     34 C          11.2732   -0.8983    0.0000 C.ar    1  UNL1       -0.0012
     35 C           8.9253    4.5553    0.0000 C.3     1  UNL1        0.0092
     36 C           7.8981    4.3824    0.0000 C.3     1  UNL1        0.1004
     37 C           7.7706   -3.5786    0.0000 C.ar    1  UNL1        0.1323
     38 C           7.5418    3.4036    0.0000 C.3     1  UNL1        0.1513
     39 C          10.8680    2.2151    0.0000 C.ar    1  UNL1        0.1277
     40 C           6.8752    0.6226    0.0000 C.ar    1  UNL1        0.0221
     41 C           5.1535   -3.1902    0.0000 C.ar    1  UNL1       -0.0012
     42 C           9.1222   -2.4266    0.0000 C.ar    1  UNL1        0.1276
     43 C          10.5673    3.9208    0.0000 C.ar    1  UNL1        0.1271
     44 C          11.2100    3.1548    0.0000 C.ar    1  UNL1        0.0221
     45 C          11.2732   -1.8983    0.0000 C.ar    1  UNL1       -0.0098
     46 C           8.4370   -4.3792    0.0000 C.ar    1  UNL1        0.0221
     47 C          12.1393   -0.3983    0.0000 C.ar    1  UNL1       -0.0513
     48 C           6.5577    3.2261    0.0000 C.ar    1  UNL1       -0.0012
     49 C           9.8070   -3.2115    0.0000 C.ar    1  UNL1        0.0218
     50 C           9.4621   -4.1943    0.0000 C.ar    1  UNL1        0.1238
     51 C           4.8224   -4.1338    0.0000 C.ar    1  UNL1       -0.0098
     52 C           4.5019   -2.4316    0.0000 C.ar    1  UNL1       -0.0513
     53 C          12.1393   -2.3983    0.0000 C.ar    1  UNL1        0.1586
     54 C          13.0053   -0.8983    0.0000 C.ar    1  UNL1       -0.0162
     55 C           5.9120    3.9897    0.0000 C.ar    1  UNL1       -0.0098
     56 C           6.2194    2.2852    0.0000 C.ar    1  UNL1       -0.0513
     57 C          13.0053   -1.8983    0.0000 C.ar    1  UNL1        0.1582
     58 C           3.8397   -4.3188    0.0000 C.ar    1  UNL1        0.1586
     59 C           3.5192   -2.6166    0.0000 C.ar    1  UNL1       -0.0162
     60 C           3.1880   -3.5602    0.0000 C.ar    1  UNL1        0.1582
     61 C           4.9279    3.8122    0.0000 C.ar    1  UNL1        0.1586
     62 C           5.2352    2.1077    0.0000 C.ar    1  UNL1       -0.0162
     63 C           4.5895    2.8713    0.0000 C.ar    1  UNL1        0.1582
     64 H          10.3399    1.3925    0.0000 H       1  UNL1        0.0429
     65 H          10.9442    0.2917    0.0000 H       1  UNL1        0.0643
     66 H           6.8962   -1.2317    0.0000 H       1  UNL1        0.0429
     67 H          10.4072   -1.0183    0.0000 H       1  UNL1        0.0811
     68 H           5.8581   -2.1763    0.0000 H       1  UNL1        0.0643
     69 H           5.9310   -3.5902    0.0000 H       1  UNL1        0.0811
     70 H           9.4662    4.8584    0.0000 H       1  UNL1        0.0342
     71 H           8.7192    5.1401    0.0000 H       1  UNL1        0.0342
     72 H           7.2873    4.2759    0.0000 H       1  UNL1        0.0637
     73 H           7.1424    3.8777    0.0000 H       1  UNL1        0.0811
     74 H           6.3394    0.9346    0.0000 H       1  UNL1        0.0691
     75 H          11.8102    0.7917    0.0000 H       1  UNL1        0.2100
     76 H          11.8206    3.2624    0.0000 H       1  UNL1        0.0691
     77 H           5.2065   -1.4176    0.0000 H       1  UNL1        0.2100
     78 H          10.7363   -2.2083    0.0000 H       1  UNL1        0.0659
     79 H           8.2250   -4.9618    0.0000 H       1  UNL1        0.0691
     80 H          12.1393    0.2217    0.0000 H       1  UNL1        0.0623
     81 H          10.4159   -3.0944    0.0000 H       1  UNL1        0.0691
     82 H           6.8408    2.1947    0.0000 H       1  UNL1        0.2921
     83 H           5.5631    0.1129    0.0000 H       1  UNL1        0.2921
     84 H           5.2264   -4.6041    0.0000 H       1  UNL1        0.0659
     85 H           4.7072   -1.8466    0.0000 H       1  UNL1        0.0623
     86 H           7.4726    5.7327    0.0000 H       1  UNL1        0.2100
     87 H          12.2827    2.2716    0.0000 H       1  UNL1        0.2921
     88 H          13.5422   -0.5883    0.0000 H       1  UNL1        0.0655
     89 H           6.1218    4.5731    0.0000 H       1  UNL1        0.0659
     90 H           6.6197    1.8118    0.0000 H       1  UNL1        0.0623
     91 H          10.4606   -1.9648    0.0000 H       1  UNL1        0.2921
     92 H          11.5199    4.9682    0.0000 H       1  UNL1        0.2921
     93 H           3.1152   -2.1463    0.0000 H       1  UNL1        0.0655
     94 H           5.0254    1.5243    0.0000 H       1  UNL1        0.0655
     95 H           9.9032   -5.5396    0.0000 H       1  UNL1        0.2921
     96 H          12.6762   -3.7083    0.0000 H       1  UNL1        0.2923
     97 H          14.4083   -2.0883    0.0000 H       1  UNL1        0.2923
     98 H           3.9125   -5.7327    0.0000 H       1  UNL1        0.2923
     99 H           2.0000   -4.3302    0.0000 H       1  UNL1        0.2923
    100 H           3.6720    4.4658    0.0000 H       1  UNL1        0.2923
    101 H           3.3955    2.1104    0.0000 H       1  UNL1        0.2923
@<TRIPOS>BOND
     1     1    23    1
     2     1    24    1
     3     2    28    1
     4     2    37    1
     5    20     3    1
     6     3    75    1
     7     4    30    1
     8     4    38    1
     9    26     5    1
    10     5    77    1
    11     6    31    1
    12     6    82    1
    13     7    32    1
    14     7    83    1
    15    36     8    1
    16     8    86    1
    17     9    39    1
    18     9    87    1
    19    10    42    1
    20    10    91    1
    21    11    43    1
    22    11    92    1
    23    12    50    1
    24    12    95    1
    25    13    53    1
    26    13    96    1
    27    14    57    1
    28    14    97    1
    29    15    58    1
    30    15    98    1
    31    16    60    1
    32    16    99    1
    33    17    61    1
    34    17   100    1
    35    18    63    1
    36    18   101    1
    37    19    20    1
    38    19    22    1
    39    19    27    1
    40    19    64    1
    41    20    23    1
    42    20    65    1
    43    21    25    1
    44    21    26    1
    45    21    29    1
    46    21    66    1
    47    22    24   ar
    48    22    31   ar
    49    23    34    1
    50    23    67    1
    51    24    25   ar
    52    25    32   ar
    53    26    28    1
    54    26    68    1
    55    27    30   ar
    56    27    39   ar
    57    28    41    1
    58    28    69    1
    59    29    37   ar
    60    29    42   ar
    61    30    33   ar
    62    31    40   ar
    63    32    40   ar
    64    33    35    1
    65    33    43   ar
    66    34    45   ar
    67    34    47   ar
    68    35    36    1
    69    35    70    1
    70    35    71    1
    71    36    38    1
    72    36    72    1
    73    37    46   ar
    74    38    48    1
    75    38    73    1
    76    39    44   ar
    77    40    74    1
    78    41    51   ar
    79    41    52   ar
    80    42    49   ar
    81    43    44   ar
    82    44    76    1
    83    45    53   ar
    84    45    78    1
    85    46    50   ar
    86    46    79    1
    87    47    54   ar
    88    47    80    1
    89    48    55   ar
    90    48    56   ar
    91    49    50   ar
    92    49    81    1
    93    51    58   ar
    94    51    84    1
    95    52    59   ar
    96    52    85    1
    97    53    57   ar
    98    54    57   ar
    99    54    88    1
   100    55    61   ar
   101    55    89    1
   102    56    62   ar
   103    56    90    1
   104    58    60   ar
   105    59    60   ar
   106    59    93    1
   107    61    63   ar
   108    62    63   ar
   109    62    94    1
