@<TRIPOS>MOLECULE
IMPHY001853
 35 38 0 0 0
SMALL
GASTEIGER

@<TRIPOS>ATOM
      1 N           6.3903   -1.2831    0.0000 N.3     1  UNL1       -0.2978
      2 C           5.5321   -0.7862    0.0000 C.3     1  UNL1        0.0401
      3 C           5.5321    0.2138    0.0000 C.ar    1  UNL1       -0.0191
      4 C           4.6660   -1.2862    0.0000 C.3     1  UNL1       -0.0073
      5 C           6.4421    0.7207    0.0000 C.ar    1  UNL1       -0.0409
      6 C           7.2558   -0.7989    0.0000 C.3     1  UNL1        0.0032
      7 C           7.2814    0.1924    0.0000 C.3     1  UNL1       -0.0145
      8 C           4.6660    0.7138    0.0000 C.ar    1  UNL1       -0.0127
      9 C           3.8000   -0.7862    0.0000 C.ar    1  UNL1       -0.0379
     10 C           3.8000    0.2138    0.0000 C.ar    1  UNL1       -0.0143
     11 C           6.3829   -2.2831    0.0000 C.3     1  UNL1       -0.0122
     12 C           6.4501    1.7623    0.0000 C.ar    1  UNL1       -0.0582
     13 C           4.6500    1.7553    0.0000 C.ar    1  UNL1       -0.0537
     14 C           2.9061   -1.3208    0.0000 C.ar    1  UNL1       -0.0579
     15 C           5.5480    2.2831    0.0000 C.ar    1  UNL1       -0.0609
     16 C           2.9061    0.7485    0.0000 C.ar    1  UNL1       -0.0538
     17 C           2.0000   -0.8070    0.0000 C.ar    1  UNL1       -0.0615
     18 C           2.0000    0.2346    0.0000 C.ar    1  UNL1       -0.0612
     19 H           5.5317   -1.4062    0.0000 H       1  UNL1        0.0515
     20 H           4.2675   -1.7611    0.0000 H       1  UNL1        0.0332
     21 H           5.0646   -1.7611    0.0000 H       1  UNL1        0.0332
     22 H           7.4575   -1.3852    0.0000 H       1  UNL1        0.0430
     23 H           7.8685   -0.7046    0.0000 H       1  UNL1        0.0430
     24 H           7.8885    0.0665    0.0000 H       1  UNL1        0.0326
     25 H           7.5131    0.7675    0.0000 H       1  UNL1        0.0326
     26 H           5.7629   -2.2785    0.0000 H       1  UNL1        0.0391
     27 H           6.3783   -2.9031    0.0000 H       1  UNL1        0.0391
     28 H           7.0029   -2.2877    0.0000 H       1  UNL1        0.0391
     29 H           6.9882    2.0702    0.0000 H       1  UNL1        0.0620
     30 H           4.1095    2.0591    0.0000 H       1  UNL1        0.0624
     31 H           2.9132   -1.9408    0.0000 H       1  UNL1        0.0620
     32 H           5.5456    2.9031    0.0000 H       1  UNL1        0.0618
     33 H           2.9132    1.3684    0.0000 H       1  UNL1        0.0624
     34 H           1.4643   -1.1191    0.0000 H       1  UNL1        0.0618
     35 H           1.4643    0.5467    0.0000 H       1  UNL1        0.0618
@<TRIPOS>BOND
     1     1     2    1
     2     1     6    1
     3     1    11    1
     4     2     3    1
     5     2     4    1
     6     2    19    1
     7     3     5   ar
     8     3     8   ar
     9     4     9    1
    10     4    20    1
    11     4    21    1
    12     5     7    1
    13     5    12   ar
    14     6     7    1
    15     6    22    1
    16     6    23    1
    17     7    24    1
    18     7    25    1
    19     8    10    1
    20     8    13   ar
    21     9    10   ar
    22     9    14   ar
    23    10    16   ar
    24    11    26    1
    25    11    27    1
    26    11    28    1
    27    12    15   ar
    28    12    29    1
    29    13    15   ar
    30    13    30    1
    31    14    17   ar
    32    14    31    1
    33    15    32    1
    34    16    18   ar
    35    16    33    1
    36    17    18   ar
    37    17    34    1
    38    18    35    1
