@<TRIPOS>MOLECULE
IMPHY001717
 32 35 0 0 0
SMALL
GASTEIGER

@<TRIPOS>ATOM
      1 O           7.5972    0.1411    0.0000 O.2     1  UNL1       -0.4558
      2 O           8.2718    2.7313    0.0000 O.3     1  UNL1       -0.3873
      3 N           4.5274   -0.7780    0.0000 N.ar    1  UNL1       -0.3524
      4 N           7.0547   -1.9022    0.0000 N.ar    1  UNL1       -0.2498
      5 C           5.3364   -1.3658    0.0000 C.ar    1  UNL1        0.0769
      6 C           5.0274   -2.3168    0.0000 C.ar    1  UNL1        0.0110
      7 C           4.0274   -2.3168    0.0000 C.ar    1  UNL1        0.0075
      8 C           3.7183   -1.3658    0.0000 C.ar    1  UNL1        0.0475
      9 C           6.3518   -1.1335    0.0000 C.ar    1  UNL1        0.1297
     10 C           5.7123   -3.1015    0.0000 C.ar    1  UNL1       -0.0338
     11 C           6.6498   -0.1789    0.0000 C.ar    1  UNL1        0.1554
     12 C           3.3424   -3.1015    0.0000 C.ar    1  UNL1       -0.0520
     13 C           2.7029   -1.1335    0.0000 C.ar    1  UNL1       -0.0378
     14 C           6.7328   -2.8928    0.0000 C.ar    1  UNL1        0.0291
     15 C           2.3219   -2.8928    0.0000 C.ar    1  UNL1       -0.0611
     16 C           2.0000   -1.9022    0.0000 C.ar    1  UNL1       -0.0598
     17 C           6.0527    0.6232    0.0000 C.ar    1  UNL1       -0.0139
     18 C           7.5856    1.1410    0.0000 C.ar    1  UNL1        0.1310
     19 C           6.6311    1.4390    0.0000 C.ar    1  UNL1       -0.0177
     20 C           8.3878    1.7381    0.0000 C.3     1  UNL1        0.1019
     21 H           4.5274   -0.1580    0.0000 H       1  UNL1        0.1660
     22 H           5.5139   -3.6889    0.0000 H       1  UNL1        0.0639
     23 H           3.5408   -3.6889    0.0000 H       1  UNL1        0.0624
     24 H           2.5182   -0.5417    0.0000 H       1  UNL1        0.0638
     25 H           7.1459   -3.3552    0.0000 H       1  UNL1        0.0830
     26 H           1.9088   -3.3552    0.0000 H       1  UNL1        0.0618
     27 H           5.4327    0.6161    0.0000 H       1  UNL1        0.0656
     28 H           1.3940   -1.7709    0.0000 H       1  UNL1        0.0618
     29 H           6.4327    2.0264    0.0000 H       1  UNL1        0.0653
     30 H           8.6660    1.1840    0.0000 H       1  UNL1        0.0638
     31 H           8.9818    1.9159    0.0000 H       1  UNL1        0.0638
     32 H           8.7691    3.1015    0.0000 H       1  UNL1        0.2100
@<TRIPOS>BOND
     1     1    11   ar
     2     1    18   ar
     3     2    20    1
     4     2    32    1
     5     3     5   ar
     6     3     8   ar
     7     3    21    1
     8     4     9   ar
     9     4    14   ar
    10     5     6   ar
    11     5     9   ar
    12     6     7   ar
    13     6    10   ar
    14     7     8   ar
    15     7    12   ar
    16     8    13   ar
    17     9    11    1
    18    10    14   ar
    19    10    22    1
    20    11    17   ar
    21    12    15   ar
    22    12    23    1
    23    13    16   ar
    24    13    24    1
    25    14    25    1
    26    15    16   ar
    27    15    26    1
    28    16    28    1
    29    17    19   ar
    30    17    27    1
    31    18    19   ar
    32    18    20    1
    33    19    29    1
    34    20    30    1
    35    20    31    1
