@<TRIPOS>MOLECULE
IMPHY006583
 20 20 0 0 0
SMALL
GASTEIGER

@<TRIPOS>ATOM
      1 O           3.7320    2.0000    0.0000 O.3     1  UNL1       -0.5062
      2 O           3.7320   -2.0000    0.0000 O.3     1  UNL1       -0.5067
      3 C           4.5981    0.5000    0.0000 C.ar    1  UNL1       -0.0053
      4 C           2.8660    0.5000    0.0000 C.ar    1  UNL1       -0.0053
      5 C           3.7320    1.0000    0.0000 C.ar    1  UNL1        0.1229
      6 C           4.5981   -0.5000    0.0000 C.ar    1  UNL1       -0.0138
      7 C           2.8660   -0.5000    0.0000 C.ar    1  UNL1       -0.0138
      8 C           3.7320   -1.0000    0.0000 C.ar    1  UNL1        0.1176
      9 C           5.4641    1.0000    0.0000 C.3     1  UNL1       -0.0361
     10 C           2.0000    1.0000    0.0000 C.3     1  UNL1       -0.0361
     11 H           5.1350   -0.8100    0.0000 H       1  UNL1        0.0658
     12 H           2.3291   -0.8100    0.0000 H       1  UNL1        0.0658
     13 H           5.7741    0.4631    0.0000 H       1  UNL1        0.0279
     14 H           6.0010    1.3100    0.0000 H       1  UNL1        0.0279
     15 H           5.1541    1.5369    0.0000 H       1  UNL1        0.0279
     16 H           2.3100    1.5369    0.0000 H       1  UNL1        0.0279
     17 H           1.4631    1.3100    0.0000 H       1  UNL1        0.0279
     18 H           1.6900    0.4631    0.0000 H       1  UNL1        0.0279
     19 H           4.2690    2.3100    0.0000 H       1  UNL1        0.2922
     20 H           3.1951   -2.3100    0.0000 H       1  UNL1        0.2921
@<TRIPOS>BOND
     1     1     5    1
     2     1    19    1
     3     2     8    1
     4     2    20    1
     5     3     5   ar
     6     3     6   ar
     7     3     9    1
     8     4     5   ar
     9     4     7   ar
    10     4    10    1
    11     6     8   ar
    12     6    11    1
    13     7     8   ar
    14     7    12    1
    15     9    13    1
    16     9    14    1
    17     9    15    1
    18    10    16    1
    19    10    17    1
    20    10    18    1
