@<TRIPOS>MOLECULE
IMPHY007741
 86 89 0 0 0
SMALL
GASTEIGER

@<TRIPOS>ATOM
      1 O           3.7320   -3.2258    0.0000 O.3     1  UNL1       -0.4610
      2 O           2.8718   -1.7225    0.0000 O.2     1  UNL1       -0.2512
      3 C           9.1251   -0.1735    0.0000 C.3     1  UNL1       -0.0199
      4 C           9.1251   -1.1735    0.0000 C.3     1  UNL1       -0.0051
      5 C           7.3931   -1.1735    0.0000 C.3     1  UNL1       -0.0137
      6 C           6.4831   -1.6803    0.0000 C.3     1  UNL1       -0.0217
      7 C          10.0713    0.1313    0.0000 C.3     1  UNL1       -0.0322
      8 C           8.2591   -1.6735    0.0000 C.2     1  UNL1       -0.0634
      9 C           6.4750   -2.7219    0.0000 C.3     1  UNL1       -0.0231
     10 C           8.2591    0.3265    0.0000 C.3     1  UNL1       -0.0460
     11 C          10.0713   -1.4782    0.0000 C.3     1  UNL1       -0.0431
     12 C           7.3931   -0.1735    0.0000 C.3     1  UNL1       -0.0455
     13 C          10.6550   -0.6735    0.0000 C.3     1  UNL1       -0.0486
     14 C           5.5396   -3.2716    0.0000 C.3     1  UNL1        0.0058
     15 C           5.5562   -1.1162    0.0000 C.3     1  UNL1       -0.0434
     16 C           7.3771   -3.2427    0.0000 C.3     1  UNL1       -0.0305
     17 C           9.1251    0.8265    0.0000 C.3     1  UNL1       -0.0585
     18 C           9.1251   -2.1735    0.0000 C.3     1  UNL1       -0.0553
     19 C           8.2752   -2.7150    0.0000 C.2     1  UNL1       -0.0836
     20 C          10.3820    1.0818    0.0000 C.3     1  UNL1       -0.0402
     21 C           4.6000   -2.7291    0.0000 C.3     1  UNL1        0.1084
     22 C           6.4908   -0.6803    0.0000 C.3     1  UNL1       -0.0587
     23 C           4.6084   -1.6442    0.0000 C.3     1  UNL1       -0.0146
     24 C           5.0430   -4.1396    0.0000 C.3     1  UNL1       -0.0562
     25 C           6.0430   -4.1357    0.0000 C.3     1  UNL1       -0.0562
     26 C          11.3605    1.2880    0.0000 C.3     1  UNL1       -0.0467
     27 C           9.7142    1.8261    0.0000 C.3     1  UNL1       -0.0621
     28 C          11.6712    2.2385    0.0000 C.3     1  UNL1       -0.0343
     29 C           2.8680   -2.7224    0.0000 C.2     1  UNL1        0.3042
     30 C          12.6497    2.4448    0.0000 C.2     1  UNL1       -0.0853
     31 C           2.0000   -3.2191    0.0000 C.3     1  UNL1        0.0332
     32 C          12.9603    3.3953    0.0000 C.2     1  UNL1       -0.0796
     33 C          13.9388    3.6015    0.0000 C.3     1  UNL1       -0.0440
     34 C          12.2925    4.1396    0.0000 C.3     1  UNL1       -0.0440
     35 H           8.1292   -0.7485    0.0000 H       1  UNL1        0.0351
     36 H          10.6838    0.2275    0.0000 H       1  UNL1        0.0309
     37 H           6.4783   -3.5719    0.0000 H       1  UNL1        0.0316
     38 H           8.6576    0.8015    0.0000 H       1  UNL1        0.0271
     39 H           7.8606    0.8015    0.0000 H       1  UNL1        0.0271
     40 H           9.8203   -2.0451    0.0000 H       1  UNL1        0.0274
     41 H          10.6087   -1.7874    0.0000 H       1  UNL1        0.0274
     42 H           7.1810    0.4092    0.0000 H       1  UNL1        0.0271
     43 H           6.7825   -0.2811    0.0000 H       1  UNL1        0.0271
     44 H          11.1158   -1.0882    0.0000 H       1  UNL1        0.0268
     45 H          11.1158   -0.2587    0.0000 H       1  UNL1        0.0268
     46 H           5.9644   -0.6496    0.0000 H       1  UNL1        0.0272
     47 H           5.1663   -0.6342    0.0000 H       1  UNL1        0.0272
     48 H           6.9798   -3.7187    0.0000 H       1  UNL1        0.0310
     49 H           7.7781   -3.7156    0.0000 H       1  UNL1        0.0310
     50 H           9.7451    0.8265    0.0000 H       1  UNL1        0.0235
     51 H           9.1251    1.4465    0.0000 H       1  UNL1        0.0235
     52 H           8.5051    0.8265    0.0000 H       1  UNL1        0.0235
     53 H           8.5051   -2.1735    0.0000 H       1  UNL1        0.0238
     54 H           9.1251   -2.7935    0.0000 H       1  UNL1        0.0238
     55 H           9.7451   -2.1735    0.0000 H       1  UNL1        0.0238
     56 H           8.8156   -3.0187    0.0000 H       1  UNL1        0.0572
     57 H          10.6461    1.8897    0.0000 H       1  UNL1        0.0301
     58 H           3.8663   -2.2999    0.0000 H       1  UNL1        0.0739
     59 H           7.1108   -0.6851    0.0000 H       1  UNL1        0.0235
     60 H           6.4956   -0.0604    0.0000 H       1  UNL1        0.0235
     61 H           5.8708   -0.6756    0.0000 H       1  UNL1        0.0235
     62 H           4.4038   -1.0589    0.0000 H       1  UNL1        0.0301
     63 H           3.9967   -1.7456    0.0000 H       1  UNL1        0.0301
     64 H           4.5048   -3.8316    0.0000 H       1  UNL1        0.0236
     65 H           4.7350   -4.6777    0.0000 H       1  UNL1        0.0236
     66 H           5.5811   -4.4475    0.0000 H       1  UNL1        0.0236
     67 H           5.5072   -4.4478    0.0000 H       1  UNL1        0.0236
     68 H           6.3550   -4.6715    0.0000 H       1  UNL1        0.0236
     69 H           6.5787   -3.8236    0.0000 H       1  UNL1        0.0236
     70 H          11.3811    0.6684    0.0000 H       1  UNL1        0.0271
     71 H          11.9743    1.2007    0.0000 H       1  UNL1        0.0271
     72 H          10.1756    2.2402    0.0000 H       1  UNL1        0.0233
     73 H           9.3001    2.2876    0.0000 H       1  UNL1        0.0233
     74 H           9.2527    1.4120    0.0000 H       1  UNL1        0.0233
     75 H          11.6506    2.8582    0.0000 H       1  UNL1        0.0307
     76 H          11.0574    2.3259    0.0000 H       1  UNL1        0.0307
     77 H          13.0637    1.9833    0.0000 H       1  UNL1        0.0571
     78 H           1.6921   -2.6810    0.0000 H       1  UNL1        0.0342
     79 H           1.4619   -3.5270    0.0000 H       1  UNL1        0.0342
     80 H           2.3079   -3.7572    0.0000 H       1  UNL1        0.0342
     81 H          12.7540    4.5536    0.0000 H       1  UNL1        0.0274
     82 H          11.8784    4.6010    0.0000 H       1  UNL1        0.0274
     83 H          11.8310    3.7255    0.0000 H       1  UNL1        0.0274
     84 H          14.0667    2.9948    0.0000 H       1  UNL1        0.0274
     85 H          14.5455    3.7294    0.0000 H       1  UNL1        0.0274
     86 H          13.8110    4.2082    0.0000 H       1  UNL1        0.0274
@<TRIPOS>BOND
     1     1    21    1
     2     1    29    1
     3     2    29    2
     4     3     4    1
     5     3     7    1
     6     3    10    1
     7     3    17    1
     8     4     8    1
     9     4    11    1
    10     4    18    1
    11     5     6    1
    12     5     8    1
    13     5    12    1
    14     5    35    1
    15     6     9    1
    16     6    15    1
    17     6    22    1
    18     7    13    1
    19     7    20    1
    20     7    36    1
    21     8    19    2
    22     9    14    1
    23     9    16    1
    24     9    37    1
    25    10    12    1
    26    10    38    1
    27    10    39    1
    28    11    13    1
    29    11    40    1
    30    11    41    1
    31    12    42    1
    32    12    43    1
    33    13    44    1
    34    13    45    1
    35    14    21    1
    36    14    24    1
    37    14    25    1
    38    15    23    1
    39    15    46    1
    40    15    47    1
    41    16    19    1
    42    16    48    1
    43    16    49    1
    44    17    50    1
    45    17    51    1
    46    17    52    1
    47    18    53    1
    48    18    54    1
    49    18    55    1
    50    19    56    1
    51    20    26    1
    52    20    27    1
    53    20    57    1
    54    21    23    1
    55    21    58    1
    56    22    59    1
    57    22    60    1
    58    22    61    1
    59    23    62    1
    60    23    63    1
    61    24    64    1
    62    24    65    1
    63    24    66    1
    64    25    67    1
    65    25    68    1
    66    25    69    1
    67    26    28    1
    68    26    70    1
    69    26    71    1
    70    27    72    1
    71    27    73    1
    72    27    74    1
    73    28    30    1
    74    28    75    1
    75    28    76    1
    76    29    31    1
    77    30    32    2
    78    30    77    1
    79    31    78    1
    80    31    79    1
    81    31    80    1
    82    32    33    1
    83    32    34    1
    84    33    84    1
    85    33    85    1
    86    33    86    1
    87    34    81    1
    88    34    82    1
    89    34    83    1
