@<TRIPOS>MOLECULE
IMPHY013903
 35 36 0 0 0
SMALL
GASTEIGER

@<TRIPOS>ATOM
      1 CL          5.4641   -1.0173    0.0000 Cl      1  UNL1       -0.1135
      2 O           6.3580    0.4480    0.0000 O.2     1  UNL1       -0.4217
      3 O           2.8660   -0.5173    0.0000 O.3     1  UNL1       -0.3857
      4 O           2.8660    0.4827    0.0000 O.3     1  UNL1       -0.4947
      5 O           8.1282    0.4585    0.0000 O.2     1  UNL1       -0.2452
      6 C           4.5981   -0.5173    0.0000 C.3     1  UNL1        0.0954
      7 C           4.5981    0.4827    0.0000 C.ar    1  UNL1        0.0575
      8 C           3.7320   -1.0173    0.0000 C.3     1  UNL1        0.0962
      9 C           5.4641    0.9827    0.0000 C.ar    1  UNL1        0.1472
     10 C           3.7320    0.9827    0.0000 C.ar    1  UNL1        0.1283
     11 C           5.4641    1.9827    0.0000 C.ar    1  UNL1        0.0182
     12 C           3.7320   -2.0173    0.0000 C.2     1  UNL1       -0.0499
     13 C           3.7320    1.9827    0.0000 C.ar    1  UNL1       -0.0188
     14 C           4.5981    2.4827    0.0000 C.ar    1  UNL1       -0.0476
     15 C           6.3580    2.5173    0.0000 C.ar    1  UNL1       -0.0443
     16 C           2.8660   -2.5173    0.0000 C.3     1  UNL1       -0.0416
     17 C           7.2641    2.0035    0.0000 C.ar    1  UNL1        0.0236
     18 C           7.2641    0.9619    0.0000 C.ar    1  UNL1        0.3372
     19 C           4.5981   -2.5173    0.0000 C.2     1  UNL1       -0.0972
     20 C           2.0000    0.9827    0.0000 C.3     1  UNL1        0.0788
     21 H           4.5981   -1.1373    0.0000 H       1  UNL1        0.0546
     22 H           3.7320   -0.3973    0.0000 H       1  UNL1        0.0658
     23 H           3.1951    2.2927    0.0000 H       1  UNL1        0.0654
     24 H           4.5981    3.1027    0.0000 H       1  UNL1        0.0626
     25 H           6.3509    3.1373    0.0000 H       1  UNL1        0.0627
     26 H           2.5560   -1.9804    0.0000 H       1  UNL1        0.0275
     27 H           2.3291   -2.8273    0.0000 H       1  UNL1        0.0275
     28 H           3.1760   -3.0543    0.0000 H       1  UNL1        0.0275
     29 H           2.3291   -0.8273    0.0000 H       1  UNL1        0.2103
     30 H           7.7998    2.3156    0.0000 H       1  UNL1        0.0689
     31 H           4.5981   -3.1373    0.0000 H       1  UNL1        0.0535
     32 H           5.1350   -2.2073    0.0000 H       1  UNL1        0.0535
     33 H           2.3100    1.5196    0.0000 H       1  UNL1        0.0660
     34 H           1.4631    1.2927    0.0000 H       1  UNL1        0.0660
     35 H           1.6900    0.4457    0.0000 H       1  UNL1        0.0660
@<TRIPOS>BOND
     1     1     6    1
     2     2     9   ar
     3     2    18   ar
     4     3     8    1
     5     3    29    1
     6     4    10    1
     7     4    20    1
     8     5    18    2
     9     6     7    1
    10     6     8    1
    11     6    21    1
    12     7     9   ar
    13     7    10   ar
    14     8    12    1
    15     8    22    1
    16     9    11   ar
    17    10    13   ar
    18    11    14   ar
    19    11    15   ar
    20    12    16    1
    21    12    19    2
    22    13    14   ar
    23    13    23    1
    24    14    24    1
    25    15    17   ar
    26    15    25    1
    27    16    26    1
    28    16    27    1
    29    16    28    1
    30    17    18   ar
    31    17    30    1
    32    19    31    1
    33    19    32    1
    34    20    33    1
    35    20    34    1
    36    20    35    1
