@<TRIPOS>MOLECULE
IMPHY001575
 71 76 0 0 0
SMALL
GASTEIGER

@<TRIPOS>ATOM
      1 O           5.5954   -2.5456    0.0000 O.3     1  UNL1       -0.3448
      2 O           3.9300   -1.4644    0.0000 O.3     1  UNL1       -0.3480
      3 O           5.7968    1.1892    0.0000 O.2     1  UNL1       -0.2921
      4 O          12.0027    2.8336    0.0000 O.3     1  UNL1       -0.3918
      5 C           6.6628   -0.3108    0.0000 C.3     1  UNL1        0.0392
      6 C           7.5288   -0.8108    0.0000 C.3     1  UNL1       -0.0194
      7 C           5.9258   -0.9778    0.0000 C.3     1  UNL1        0.0055
      8 C           6.3309   -1.8856    0.0000 C.3     1  UNL1        0.0664
      9 C           8.3948   -0.3108    0.0000 C.3     1  UNL1       -0.0152
     10 C           7.3196   -1.7826    0.0000 C.3     1  UNL1       -0.0219
     11 C           4.9434   -1.0845    0.0000 C.3     1  UNL1        0.0164
     12 C           4.7396   -2.0515    0.0000 C.3     1  UNL1        0.1732
     13 C           9.2888    1.2239    0.0000 C.3     1  UNL1       -0.0074
     14 C           8.3948    0.6892    0.0000 C.2     1  UNL1       -0.0567
     15 C          10.1949    0.7101    0.0000 C.3     1  UNL1       -0.0296
     16 C           9.2888   -0.8454    0.0000 C.3     1  UNL1       -0.0459
     17 C           6.6628    0.6892    0.0000 C.2     1  UNL1        0.1625
     18 C           5.7968    0.1892    0.0000 C.3     1  UNL1       -0.0519
     19 C          10.1949   -0.3316    0.0000 C.3     1  UNL1       -0.0488
     20 C           7.5288    1.1892    0.0000 C.2     1  UNL1       -0.0186
     21 C           9.2637    2.3086    0.0000 C.3     1  UNL1       -0.0413
     22 C           4.6359   -3.0461    0.0000 C.3     1  UNL1        0.0020
     23 C           4.2723   -0.3431    0.0000 C.3     1  UNL1       -0.0572
     24 C          11.1386    1.2453    0.0000 C.3     1  UNL1       -0.0232
     25 C           8.4189    1.7172    0.0000 C.3     1  UNL1       -0.0556
     26 C          10.1949    2.8655    0.0000 C.3     1  UNL1       -0.0261
     27 C          11.1386    2.3303    0.0000 C.3     1  UNL1        0.0556
     28 C           3.7227   -3.4536    0.0000 C.3     1  UNL1       -0.0435
     29 C           2.9132   -2.8665    0.0000 C.3     1  UNL1       -0.0201
     30 C           3.0169   -1.8719    0.0000 C.3     1  UNL1        0.0535
     31 C           2.0000   -3.2741    0.0000 C.3     1  UNL1       -0.0603
     32 H           8.2158   -1.3113    0.0000 H       1  UNL1        0.0317
     33 H           5.5777   -0.2024    0.0000 H       1  UNL1        0.0340
     34 H           6.6756   -2.6626    0.0000 H       1  UNL1        0.0600
     35 H           8.3883   -1.1607    0.0000 H       1  UNL1        0.0349
     36 H           7.3187   -2.4026    0.0000 H       1  UNL1        0.0293
     37 H           7.9361   -1.8486    0.0000 H       1  UNL1        0.0293
     38 H           4.3448   -1.2463    0.0000 H       1  UNL1        0.0354
     39 H          10.9293    0.2822    0.0000 H       1  UNL1        0.0310
     40 H           8.8842   -1.3152    0.0000 H       1  UNL1        0.0271
     41 H           9.6824   -1.3244    0.0000 H       1  UNL1        0.0271
     42 H           6.1068    0.7262    0.0000 H       1  UNL1        0.0239
     43 H           5.2598    0.4992    0.0000 H       1  UNL1        0.0239
     44 H           5.4868   -0.3477    0.0000 H       1  UNL1        0.0239
     45 H          10.4039   -0.9153    0.0000 H       1  UNL1        0.0268
     46 H          10.8057   -0.2255    0.0000 H       1  UNL1        0.0268
     47 H           7.5288    1.8092    0.0000 H       1  UNL1        0.0652
     48 H           9.0412    2.8873    0.0000 H       1  UNL1        0.0274
     49 H           8.6555    2.1884    0.0000 H       1  UNL1        0.0274
     50 H           4.7864   -3.6476    0.0000 H       1  UNL1        0.0317
     51 H           5.2544   -3.0023    0.0000 H       1  UNL1        0.0317
     52 H           4.7320    0.0729    0.0000 H       1  UNL1        0.0234
     53 H           3.8562    0.1165    0.0000 H       1  UNL1        0.0234
     54 H           3.8126   -0.7592    0.0000 H       1  UNL1        0.0234
     55 H          11.3477    0.6616    0.0000 H       1  UNL1        0.0293
     56 H          11.7495    1.3514    0.0000 H       1  UNL1        0.0293
     57 H           8.7248    2.2565    0.0000 H       1  UNL1        0.0238
     58 H           7.8796    2.0231    0.0000 H       1  UNL1        0.0238
     59 H           8.1131    1.1779    0.0000 H       1  UNL1        0.0238
     60 H          10.5885    3.3446    0.0000 H       1  UNL1        0.0290
     61 H           9.7903    3.3353    0.0000 H       1  UNL1        0.0290
     62 H          11.1351    2.9503    0.0000 H       1  UNL1        0.0593
     63 H           3.2771   -3.8847    0.0000 H       1  UNL1        0.0270
     64 H           4.0699   -3.9673    0.0000 H       1  UNL1        0.0270
     65 H           2.4113   -2.5026    0.0000 H       1  UNL1        0.0320
     66 H           2.8664   -1.2705    0.0000 H       1  UNL1        0.0563
     67 H           2.3984   -1.9157    0.0000 H       1  UNL1        0.0563
     68 H           1.7473   -2.7079    0.0000 H       1  UNL1        0.0233
     69 H           1.4338   -3.5267    0.0000 H       1  UNL1        0.0233
     70 H           2.2527   -3.8402    0.0000 H       1  UNL1        0.0233
     71 H          12.0003    3.4536    0.0000 H       1  UNL1        0.2098
@<TRIPOS>BOND
     1     1     8    1
     2    12     1    1
     3     2    12    1
     4     2    30    1
     5     3    17    2
     6    27     4    1
     7     4    71    1
     8     5     6    1
     9     5     7    1
    10     5    17    1
    11     5    18    1
    12     6     9    1
    13     6    10    1
    14     6    32    1
    15     7     8    1
    16     7    11    1
    17     7    33    1
    18     8    10    1
    19     8    34    1
    20     9    14    1
    21     9    16    1
    22     9    35    1
    23    10    36    1
    24    10    37    1
    25    11    12    1
    26    11    23    1
    27    11    38    1
    28    12    22    1
    29    13    14    1
    30    13    15    1
    31    13    21    1
    32    13    25    1
    33    14    20    2
    34    15    19    1
    35    15    24    1
    36    15    39    1
    37    16    19    1
    38    16    40    1
    39    16    41    1
    40    17    20    1
    41    18    42    1
    42    18    43    1
    43    18    44    1
    44    19    45    1
    45    19    46    1
    46    20    47    1
    47    21    26    1
    48    21    48    1
    49    21    49    1
    50    22    28    1
    51    22    50    1
    52    22    51    1
    53    23    52    1
    54    23    53    1
    55    23    54    1
    56    24    27    1
    57    24    55    1
    58    24    56    1
    59    25    57    1
    60    25    58    1
    61    25    59    1
    62    26    27    1
    63    26    60    1
    64    26    61    1
    65    27    62    1
    66    28    29    1
    67    28    63    1
    68    28    64    1
    69    29    30    1
    70    29    31    1
    71    29    65    1
    72    30    66    1
    73    30    67    1
    74    31    68    1
    75    31    69    1
    76    31    70    1
