@<TRIPOS>MOLECULE
IMPHY011250
 58 61 0 0 0
SMALL
GASTEIGER

@<TRIPOS>ATOM
      1 O           7.2331    3.0695    0.0000 O.3     1  UNL1       -0.3872
      2 O           6.8671   -0.2965    0.0000 O.3     1  UNL1       -0.3373
      3 O           5.6102    2.9588    0.0000 O.2     1  UNL1       -0.2966
      4 O           5.1350   -0.2965    0.0000 O.3     1  UNL1       -0.3405
      5 O           6.8671   -2.2965    0.0000 O.3     1  UNL1       -0.3841
      6 O           5.1350   -3.2965    0.0000 O.3     1  UNL1       -0.3864
      7 O           3.4030   -2.2965    0.0000 O.3     1  UNL1       -0.3865
      8 O           2.5369   -0.7965    0.0000 O.3     1  UNL1       -0.3924
      9 C           8.5991    1.7035    0.0000 C.3     1  UNL1        0.0209
     10 C           7.7331    2.2035    0.0000 C.3     1  UNL1        0.0849
     11 C           9.5991    1.7035    0.0000 C.3     1  UNL1       -0.0401
     12 C           9.0991    2.5695    0.0000 C.3     1  UNL1       -0.0401
     13 C           6.8671    1.7035    0.0000 C.3     1  UNL1        0.0797
     14 C           6.8671    0.7035    0.0000 C.3     1  UNL1        0.1037
     15 C           8.5991    0.7035    0.0000 C.2     1  UNL1       -0.0649
     16 C           5.9208    0.3988    0.0000 C.3     1  UNL1       -0.0100
     17 C           7.7331    0.2035    0.0000 C.2     1  UNL1       -0.0521
     18 C           5.9208    2.0082    0.0000 C.2     1  UNL1        0.1451
     19 C           5.3372    1.2035    0.0000 C.3     1  UNL1        0.0181
     20 C           8.2331    3.0695    0.0000 C.3     1  UNL1       -0.0345
     21 C           9.4651    0.2035    0.0000 C.3     1  UNL1       -0.0431
     22 C           4.3372    1.2035    0.0000 C.3     1  UNL1       -0.0556
     23 C           6.0010   -0.7965    0.0000 C.3     1  UNL1        0.1889
     24 C           6.0010   -1.7965    0.0000 C.3     1  UNL1        0.1341
     25 C           5.1350   -2.2965    0.0000 C.3     1  UNL1        0.1141
     26 C           4.2690   -0.7965    0.0000 C.3     1  UNL1        0.1130
     27 C           4.2690   -1.7965    0.0000 C.3     1  UNL1        0.1119
     28 C           3.4030   -0.2965    0.0000 C.3     1  UNL1        0.0730
     29 H           9.5741    2.9681    0.0000 H       1  UNL1        0.0275
     30 H           8.6242    2.9681    0.0000 H       1  UNL1        0.0275
     31 H           9.7068    1.0929    0.0000 H       1  UNL1        0.0275
     32 H          10.1817    1.9156    0.0000 H       1  UNL1        0.0275
     33 H           6.7771    2.5488    0.0000 H       1  UNL1        0.0438
     34 H           5.3835    0.0896    0.0000 H       1  UNL1        0.0303
     35 H           6.1719   -0.1681    0.0000 H       1  UNL1        0.0303
     36 H           7.7331   -0.4165    0.0000 H       1  UNL1        0.0600
     37 H           5.0555    0.6512    0.0000 H       1  UNL1        0.0376
     38 H           8.7700    2.7595    0.0000 H       1  UNL1        0.0258
     39 H           8.5431    3.6065    0.0000 H       1  UNL1        0.0258
     40 H           7.6962    3.3795    0.0000 H       1  UNL1        0.0258
     41 H           7.5431    3.6065    0.0000 H       1  UNL1        0.2102
     42 H           9.1551   -0.3334    0.0000 H       1  UNL1        0.0275
     43 H          10.0021   -0.1065    0.0000 H       1  UNL1        0.0275
     44 H           9.7751    0.7405    0.0000 H       1  UNL1        0.0275
     45 H           4.3372    1.8235    0.0000 H       1  UNL1        0.0236
     46 H           3.7172    1.2035    0.0000 H       1  UNL1        0.0236
     47 H           4.3372    0.5835    0.0000 H       1  UNL1        0.0236
     48 H           6.0010   -0.1765    0.0000 H       1  UNL1        0.0938
     49 H           6.5380   -1.4865    0.0000 H       1  UNL1        0.0671
     50 H           4.5981   -2.6065    0.0000 H       1  UNL1        0.0648
     51 H           4.2690   -0.1765    0.0000 H       1  UNL1        0.0647
     52 H           3.7320   -1.4865    0.0000 H       1  UNL1        0.0647
     53 H           6.8671   -2.9165    0.0000 H       1  UNL1        0.2101
     54 H           3.8015    0.1785    0.0000 H       1  UNL1        0.0584
     55 H           3.0044    0.1785    0.0000 H       1  UNL1        0.0584
     56 H           4.5981   -3.6065    0.0000 H       1  UNL1        0.2100
     57 H           3.4030   -2.9165    0.0000 H       1  UNL1        0.2100
     58 H           2.0000   -0.4865    0.0000 H       1  UNL1        0.2095
@<TRIPOS>BOND
     1    10     1    1
     2     1    41    1
     3    14     2    1
     4    23     2    1
     5     3    18    2
     6     4    23    1
     7     4    26    1
     8    24     5    1
     9     5    53    1
    10    25     6    1
    11     6    56    1
    12    27     7    1
    13     7    57    1
    14     8    28    1
    15     8    58    1
    16     9    10    1
    17     9    11    1
    18     9    12    1
    19     9    15    1
    20    10    13    1
    21    10    20    1
    22    11    12    1
    23    11    31    1
    24    11    32    1
    25    12    29    1
    26    12    30    1
    27    13    14    1
    28    13    18    1
    29    13    33    1
    30    14    16    1
    31    14    17    1
    32    15    17    2
    33    15    21    1
    34    16    19    1
    35    16    34    1
    36    16    35    1
    37    17    36    1
    38    18    19    1
    39    19    22    1
    40    19    37    1
    41    20    38    1
    42    20    39    1
    43    20    40    1
    44    21    42    1
    45    21    43    1
    46    21    44    1
    47    22    45    1
    48    22    46    1
    49    22    47    1
    50    23    24    1
    51    23    48    1
    52    24    25    1
    53    24    49    1
    54    25    27    1
    55    25    50    1
    56    26    27    1
    57    26    28    1
    58    26    51    1
    59    27    52    1
    60    28    54    1
    61    28    55    1
