@<TRIPOS>MOLECULE
IMPHY005923
 31 33 0 0 0
SMALL
GASTEIGER

@<TRIPOS>ATOM
      1 O           6.0682   -1.7327    0.0000 O.2     1  UNL1       -0.4590
      2 O           6.0682    1.2673    0.0000 O.2     1  UNL1       -0.2864
      3 O           2.5381   -1.7568    0.0000 O.3     1  UNL1       -0.5066
      4 C           6.9343   -0.2327    0.0000 C.ar    1  UNL1        0.0672
      5 C           5.2022   -0.2327    0.0000 C.ar    1  UNL1        0.0648
      6 C           6.9343   -1.2327    0.0000 C.ar    1  UNL1        0.1139
      7 C           6.0682    0.2673    0.0000 C.ar    1  UNL1        0.2004
      8 C           5.2022   -1.2327    0.0000 C.ar    1  UNL1        0.1422
      9 C           7.8003    0.2673    0.0000 C.ar    1  UNL1       -0.0110
     10 C           4.3083    0.3020    0.0000 C.ar    1  UNL1       -0.0439
     11 C           4.3083   -1.7673    0.0000 C.ar    1  UNL1        0.0228
     12 C           7.8003   -1.7327    0.0000 C.3     1  UNL1       -0.0056
     13 C           8.6663   -0.2327    0.0000 C.ar    1  UNL1       -0.0538
     14 C           7.8003    1.2673    0.0000 C.ar    1  UNL1       -0.0538
     15 C           3.4022   -1.2535    0.0000 C.ar    1  UNL1        0.1204
     16 C           3.4022   -0.2119    0.0000 C.ar    1  UNL1       -0.0193
     17 C           9.5323    0.2673    0.0000 C.ar    1  UNL1       -0.0612
     18 C           8.6663    1.7673    0.0000 C.ar    1  UNL1       -0.0612
     19 C           9.5323    1.2673    0.0000 C.ar    1  UNL1       -0.0617
     20 H           4.3154    0.9220    0.0000 H       1  UNL1        0.0627
     21 H           4.3154   -2.3873    0.0000 H       1  UNL1        0.0691
     22 H           7.4903   -2.2696    0.0000 H       1  UNL1        0.0308
     23 H           8.3372   -2.0427    0.0000 H       1  UNL1        0.0308
     24 H           8.1103   -1.1957    0.0000 H       1  UNL1        0.0308
     25 H           8.6663   -0.8527    0.0000 H       1  UNL1        0.0624
     26 H           7.2634    1.5773    0.0000 H       1  UNL1        0.0624
     27 H           2.8665    0.1002    0.0000 H       1  UNL1        0.0654
     28 H          10.0693   -0.0427    0.0000 H       1  UNL1        0.0618
     29 H           8.6663    2.3873    0.0000 H       1  UNL1        0.0618
     30 H          10.0693    1.5773    0.0000 H       1  UNL1        0.0618
     31 H           2.0000   -1.4489    0.0000 H       1  UNL1        0.2921
@<TRIPOS>BOND
     1     1     6   ar
     2     1     8   ar
     3     2     7    2
     4     3    15    1
     5     3    31    1
     6     4     6   ar
     7     4     7   ar
     8     4     9    1
     9     5     7   ar
    10     5     8   ar
    11     5    10   ar
    12     6    12    1
    13     8    11   ar
    14     9    13   ar
    15     9    14   ar
    16    10    16   ar
    17    10    20    1
    18    11    15   ar
    19    11    21    1
    20    12    22    1
    21    12    23    1
    22    12    24    1
    23    13    17   ar
    24    13    25    1
    25    14    18   ar
    26    14    26    1
    27    15    16   ar
    28    16    27    1
    29    17    19   ar
    30    17    28    1
    31    18    19   ar
    32    18    29    1
    33    19    30    1
