@<TRIPOS>MOLECULE
IMPHY016768
 19 19 0 0 0
SMALL
GASTEIGER

@<TRIPOS>ATOM
      1 O           3.7320    2.2500    0.0000 O.2     1  UNL1       -0.2790
      2 N           2.8660    0.7500    0.0000 N.am    1  UNL1       -0.2770
      3 C           2.8660   -0.2500    0.0000 C.ar    1  UNL1        0.0357
      4 C           2.0000   -0.7500    0.0000 C.ar    1  UNL1       -0.0403
      5 C           3.7320   -0.7500    0.0000 C.ar    1  UNL1       -0.0403
      6 C           2.0000    1.2500    0.0000 C.3     1  UNL1        0.0080
      7 C           2.0000   -1.7500    0.0000 C.ar    1  UNL1       -0.0600
      8 C           3.7320   -1.7500    0.0000 C.ar    1  UNL1       -0.0600
      9 C           2.8660   -2.2500    0.0000 C.ar    1  UNL1       -0.0616
     10 C           3.7320    1.2500    0.0000 C.2     1  UNL1        0.2065
     11 H           1.4631   -0.4400    0.0000 H       1  UNL1        0.0636
     12 H           4.2690   -0.4400    0.0000 H       1  UNL1        0.0636
     13 H           2.3100    1.7869    0.0000 H       1  UNL1        0.0432
     14 H           1.4631    1.5600    0.0000 H       1  UNL1        0.0432
     15 H           1.6900    0.7131    0.0000 H       1  UNL1        0.0432
     16 H           1.4631   -2.0600    0.0000 H       1  UNL1        0.0618
     17 H           4.2690   -2.0600    0.0000 H       1  UNL1        0.0618
     18 H           2.8660   -2.8700    0.0000 H       1  UNL1        0.0618
     19 H           4.2690    0.9400    0.0000 H       1  UNL1        0.1257
@<TRIPOS>BOND
     1     1    10    2
     2     2     3    1
     3     2     6    1
     4     2    10   am
     5     3     4   ar
     6     3     5   ar
     7     4     7   ar
     8     4    11    1
     9     5     8   ar
    10     5    12    1
    11     6    13    1
    12     6    14    1
    13     6    15    1
    14     7     9   ar
    15     7    16    1
    16     8     9   ar
    17     8    17    1
    18     9    18    1
    19    10    19    1
