@<TRIPOS>MOLECULE
IMPHY016893
 36 38 0 0 0
SMALL
GASTEIGER

@<TRIPOS>ATOM
      1 C           5.5980   -0.3626    0.0000 C.3     1  UNL1       -0.0260
      2 C           4.4579    0.5945    0.0000 C.3     1  UNL1       -0.0335
      3 C           2.7813   -0.4478    0.0000 C.3     1  UNL1       -0.0311
      4 C           4.1991   -0.3714    0.0000 C.3     1  UNL1       -0.0135
      5 C           5.4864   -1.3660    0.0000 C.3     1  UNL1       -0.0312
      6 C           4.3794    2.0552    0.0000 C.3     1  UNL1       -0.0460
      7 C           2.9533   -1.4426    0.0000 C.3     1  UNL1       -0.0494
      8 C           2.9782    1.2462    0.0000 C.2     1  UNL1       -0.0730
      9 C           4.7444   -2.0506    0.0000 C.3     1  UNL1       -0.0476
     10 C           3.3849    2.1598    0.0000 C.3     1  UNL1       -0.0314
     11 C           3.7353   -2.0811    0.0000 C.3     1  UNL1       -0.0523
     12 C           6.0946   -2.1598    0.0000 C.3     1  UNL1       -0.0595
     13 C           6.4862   -1.3854    0.0000 C.3     1  UNL1       -0.0595
     14 C           2.0000    1.0383    0.0000 C.2     1  UNL1       -0.0992
     15 H           6.1736   -0.1322    0.0000 H       1  UNL1        0.0315
     16 H           5.0126    0.8714    0.0000 H       1  UNL1        0.0307
     17 H           2.2156   -0.1940    0.0000 H       1  UNL1        0.0309
     18 H           4.4738    0.1844    0.0000 H       1  UNL1        0.0351
     19 H           4.9994    2.0558    0.0000 H       1  UNL1        0.0271
     20 H           4.4116    2.6744    0.0000 H       1  UNL1        0.0271
     21 H           2.3373   -1.3720    0.0000 H       1  UNL1        0.0268
     22 H           2.7122   -2.0138    0.0000 H       1  UNL1        0.0268
     23 H           4.5880   -2.6505    0.0000 H       1  UNL1        0.0271
     24 H           5.2761   -2.3695    0.0000 H       1  UNL1        0.0271
     25 H           3.5138    2.7662    0.0000 H       1  UNL1        0.0310
     26 H           2.7952    2.3514    0.0000 H       1  UNL1        0.0310
     27 H           3.2239   -2.4316    0.0000 H       1  UNL1        0.0266
     28 H           3.9277   -2.6705    0.0000 H       1  UNL1        0.0266
     29 H           5.6025   -2.5369    0.0000 H       1  UNL1        0.0235
     30 H           6.4717   -2.6519    0.0000 H       1  UNL1        0.0235
     31 H           6.5868   -1.7827    0.0000 H       1  UNL1        0.0235
     32 H           6.4742   -2.0053    0.0000 H       1  UNL1        0.0235
     33 H           7.1061   -1.3974    0.0000 H       1  UNL1        0.0235
     34 H           6.4983   -0.7655    0.0000 H       1  UNL1        0.0235
     35 H           1.5851    1.4991    0.0000 H       1  UNL1        0.0534
     36 H           1.8084    0.4487    0.0000 H       1  UNL1        0.0534
@<TRIPOS>BOND
     1     1     2    1
     2     1     4    1
     3     1     5    1
     4     1    15    1
     5     2     3    1
     6     2     6    1
     7     2    16    1
     8     3     4    1
     9     3     7    1
    10     3    17    1
    11     4     8    1
    12     4    18    1
    13     5     9    1
    14     5    12    1
    15     5    13    1
    16     6    10    1
    17     6    19    1
    18     6    20    1
    19     7    11    1
    20     7    21    1
    21     7    22    1
    22     8    10    1
    23     8    14    2
    24     9    11    1
    25     9    23    1
    26     9    24    1
    27    10    25    1
    28    10    26    1
    29    11    27    1
    30    11    28    1
    31    12    29    1
    32    12    30    1
    33    12    31    1
    34    13    32    1
    35    13    33    1
    36    13    34    1
    37    14    35    1
    38    14    36    1
