@<TRIPOS>MOLECULE
IMPHY008274
 33 35 0 0 0
SMALL
GASTEIGER

@<TRIPOS>ATOM
      1 O           5.4239    2.2823    0.0000 O.3     1  UNL1       -0.4801
      2 O           3.6387    2.4385    0.0000 O.3     1  UNL1       -0.5009
      3 O           7.9788    2.9894    0.0000 O.2     1  UNL1       -0.2934
      4 O           6.8830   -2.6101    0.0000 O.3     1  UNL1       -0.5033
      5 O           8.7754   -1.8262    0.0000 O.3     1  UNL1       -0.5033
      6 O           2.3793    0.8231    0.0000 O.3     1  UNL1       -0.5032
      7 C           6.3478    0.0518    0.0000 C.ar    1  UNL1       -0.0070
      8 C           7.2717    0.4345    0.0000 C.ar    1  UNL1       -0.0287
      9 C           5.4239    0.4345    0.0000 C.ar    1  UNL1        0.0281
     10 C           7.6543    1.3584    0.0000 C.3     1  UNL1        0.0351
     11 C           5.0412    1.3584    0.0000 C.ar    1  UNL1        0.1737
     12 C           6.1959   -0.9787    0.0000 C.ar    1  UNL1       -0.0084
     13 C           8.1077   -0.1868    0.0000 C.ar    1  UNL1       -0.0124
     14 C           7.2717    2.2823    0.0000 C.2     1  UNL1        0.1747
     15 C           6.3478    2.6650    0.0000 C.3     1  UNL1        0.1478
     16 C           4.8026   -0.4015    0.0000 C.ar    1  UNL1       -0.0468
     17 C           4.0107    1.5103    0.0000 C.ar    1  UNL1        0.2014
     18 C           7.0174   -1.6191    0.0000 C.ar    1  UNL1        0.1588
     19 C           7.9797   -1.2205    0.0000 C.ar    1  UNL1        0.1585
     20 C           3.7689   -0.2735    0.0000 C.ar    1  UNL1       -0.0157
     21 C           3.3703    0.6888    0.0000 C.ar    1  UNL1        0.1620
     22 H           8.1462    0.9810    0.0000 H       1  UNL1        0.0391
     23 H           8.1462    1.7358    0.0000 H       1  UNL1        0.0391
     24 H           5.6204   -1.2093    0.0000 H       1  UNL1        0.0661
     25 H           8.6777    0.0571    0.0000 H       1  UNL1        0.0658
     26 H           6.7252    3.1568    0.0000 H       1  UNL1        0.0777
     27 H           5.9704    3.1568    0.0000 H       1  UNL1        0.0777
     28 H           5.0465   -0.9716    0.0000 H       1  UNL1        0.0626
     29 H           3.3933   -0.7669    0.0000 H       1  UNL1        0.0655
     30 H           3.0250    2.5265    0.0000 H       1  UNL1        0.2924
     31 H           7.3735   -2.9894    0.0000 H       1  UNL1        0.2923
     32 H           9.3473   -1.5867    0.0000 H       1  UNL1        0.2923
     33 H           2.0000    0.3327    0.0000 H       1  UNL1        0.2923
@<TRIPOS>BOND
     1     1    11    1
     2     1    15    1
     3     2    17    1
     4     2    30    1
     5     3    14    2
     6     4    18    1
     7     4    31    1
     8     5    19    1
     9     5    32    1
    10     6    21    1
    11     6    33    1
    12     7     8   ar
    13     7     9    1
    14     7    12   ar
    15     8    10    1
    16     8    13   ar
    17     9    11   ar
    18     9    16   ar
    19    10    14    1
    20    10    22    1
    21    10    23    1
    22    11    17   ar
    23    12    18   ar
    24    12    24    1
    25    13    19   ar
    26    13    25    1
    27    14    15    1
    28    15    26    1
    29    15    27    1
    30    16    20   ar
    31    16    28    1
    32    17    21   ar
    33    18    19   ar
    34    20    21   ar
    35    20    29    1
