@<TRIPOS>MOLECULE
IMPHY015070
 44 49 0 0 0
SMALL
GASTEIGER

@<TRIPOS>ATOM
      1 O           2.4608   -0.7545    0.0000 O.3     1  UNL1       -0.3844
      2 O           5.7730    0.2237    0.0000 O.2     1  UNL1       -0.2896
      3 O           2.1722    1.6096    0.0000 O.3     1  UNL1       -0.4522
      4 O           2.9992    3.0679    0.0000 O.3     1  UNL1       -0.4526
      5 O           7.8725   -1.1950    0.0000 O.3     1  UNL1       -0.4526
      6 O           7.8725   -2.8715    0.0000 O.3     1  UNL1       -0.4526
      7 N           3.3548   -1.5332    0.0000 N.3     1  UNL1       -0.2869
      8 C           4.2208   -1.0332    0.0000 C.3     1  UNL1        0.1410
      9 C           3.4118   -0.4455    0.0000 C.3     1  UNL1        0.1140
     10 C           5.0868   -1.5332    0.0000 C.ar    1  UNL1       -0.0099
     11 C           5.0298   -0.4455    0.0000 C.2     1  UNL1        0.1910
     12 C           3.7208    0.5056    0.0000 C.ar    1  UNL1        0.0394
     13 C           3.3548   -2.5332    0.0000 C.3     1  UNL1        0.0039
     14 C           5.0868   -2.5332    0.0000 C.ar    1  UNL1       -0.0370
     15 C           4.7208    0.5056    0.0000 C.ar    1  UNL1        0.0292
     16 C           4.2208   -3.0332    0.0000 C.3     1  UNL1       -0.0144
     17 C           5.9808   -0.9986    0.0000 C.ar    1  UNL1       -0.0104
     18 C           2.4888   -2.0332    0.0000 C.3     1  UNL1       -0.0115
     19 C           3.1862    1.3995    0.0000 C.ar    1  UNL1        0.1726
     20 C           5.9808   -3.0679    0.0000 C.ar    1  UNL1       -0.0126
     21 C           5.2555    1.3995    0.0000 C.ar    1  UNL1       -0.0472
     22 C           6.8869   -1.5124    0.0000 C.ar    1  UNL1        0.1666
     23 C           6.8869   -2.5541    0.0000 C.ar    1  UNL1        0.1665
     24 C           3.7000    2.3056    0.0000 C.ar    1  UNL1        0.1666
     25 C           4.7416    2.3056    0.0000 C.ar    1  UNL1       -0.0155
     26 C           2.0570    2.6387    0.0000 C.3     1  UNL1        0.2332
     27 C           8.4804   -2.0332    0.0000 C.3     1  UNL1        0.2332
     28 H           2.9734   -0.0071    0.0000 H       1  UNL1        0.0672
     29 H           2.7442   -2.4256    0.0000 H       1  UNL1        0.0430
     30 H           3.1428   -3.1159    0.0000 H       1  UNL1        0.0430
     31 H           3.8223   -3.5082    0.0000 H       1  UNL1        0.0326
     32 H           4.6194   -3.5082    0.0000 H       1  UNL1        0.0326
     33 H           5.9736   -0.3786    0.0000 H       1  UNL1        0.0659
     34 H           2.1788   -1.4963    0.0000 H       1  UNL1        0.0391
     35 H           1.9518   -2.3432    0.0000 H       1  UNL1        0.0391
     36 H           2.7988   -2.5702    0.0000 H       1  UNL1        0.0391
     37 H           5.9736   -3.6879    0.0000 H       1  UNL1        0.0658
     38 H           5.8754    1.3924    0.0000 H       1  UNL1        0.0626
     39 H           2.0000   -0.3396    0.0000 H       1  UNL1        0.2103
     40 H           5.0537    2.8413    0.0000 H       1  UNL1        0.0655
     41 H           1.8607    3.2268    0.0000 H       1  UNL1        0.1166
     42 H           1.4515    2.5053    0.0000 H       1  UNL1        0.1166
     43 H           8.9412   -2.4480    0.0000 H       1  UNL1        0.1166
     44 H           8.9412   -1.6185    0.0000 H       1  UNL1        0.1166
@<TRIPOS>BOND
     1     9     1    1
     2     1    39    1
     3     2    11    2
     4     3    19    1
     5     3    26    1
     6     4    24    1
     7     4    26    1
     8     5    22    1
     9     5    27    1
    10     6    23    1
    11     6    27    1
    12     8     7    1
    13     7    13    1
    14     7    18    1
    15     8     9    1
    16     8    10    1
    17     8    11    1
    18     9    12    1
    19     9    28    1
    20    10    14   ar
    21    10    17   ar
    22    11    15    1
    23    12    15   ar
    24    12    19   ar
    25    13    16    1
    26    13    29    1
    27    13    30    1
    28    14    16    1
    29    14    20   ar
    30    15    21   ar
    31    16    31    1
    32    16    32    1
    33    17    22   ar
    34    17    33    1
    35    18    34    1
    36    18    35    1
    37    18    36    1
    38    19    24   ar
    39    20    23   ar
    40    20    37    1
    41    21    25   ar
    42    21    38    1
    43    22    23   ar
    44    24    25   ar
    45    25    40    1
    46    26    41    1
    47    26    42    1
    48    27    43    1
    49    27    44    1
