@<TRIPOS>MOLECULE
IMPHY004965
 161 160 0 0 0
SMALL
GASTEIGER

@<TRIPOS>ATOM
      1 O          14.9904    2.0600    0.0000 O.3     1  UNL1       -0.4544
      2 O          12.3923    1.5600    0.0000 O.3     1  UNL1       -0.4608
      3 O          13.2583    0.0600    0.0000 O.3     1  UNL1       -0.4608
      4 O          15.8564    0.5600    0.0000 O.2     1  UNL1       -0.2508
      5 O          11.5263    3.0600    0.0000 O.2     1  UNL1       -0.2509
      6 O          14.1244   -1.4400    0.0000 O.2     1  UNL1       -0.2509
      7 C          19.3205    1.5600    0.0000 C.3     1  UNL1       -0.0530
      8 C          18.4545    2.0600    0.0000 C.3     1  UNL1       -0.0526
      9 C          20.1865    2.0600    0.0000 C.3     1  UNL1       -0.0528
     10 C           8.0622    2.0600    0.0000 C.3     1  UNL1       -0.0530
     11 C          11.5263   -3.9400    0.0000 C.3     1  UNL1       -0.0530
     12 C           8.9282    1.5600    0.0000 C.3     1  UNL1       -0.0526
     13 C          11.5263   -2.9400    0.0000 C.3     1  UNL1       -0.0526
     14 C           7.1962    1.5600    0.0000 C.3     1  UNL1       -0.0528
     15 C          10.6603   -4.4400    0.0000 C.3     1  UNL1       -0.0528
     16 C          17.5885    1.5600    0.0000 C.3     1  UNL1       -0.0430
     17 C          21.0526    1.5600    0.0000 C.3     1  UNL1       -0.0496
     18 C           9.7942    2.0600    0.0000 C.3     1  UNL1       -0.0430
     19 C          12.3923   -2.4400    0.0000 C.3     1  UNL1       -0.0430
     20 C           6.3301    2.0600    0.0000 C.3     1  UNL1       -0.0496
     21 C          10.6603   -5.4400    0.0000 C.3     1  UNL1       -0.0496
     22 C          16.7224    2.0600    0.0000 C.3     1  UNL1        0.0450
     23 C          10.6603    1.5600    0.0000 C.3     1  UNL1        0.0449
     24 C          12.3923   -1.4400    0.0000 C.3     1  UNL1        0.0449
     25 C          21.9186    2.0600    0.0000 C.3     1  UNL1       -0.0348
     26 C          14.1244    1.5600    0.0000 C.3     1  UNL1        0.1706
     27 C           5.4641    1.5600    0.0000 C.3     1  UNL1       -0.0348
     28 C           9.7942   -5.9400    0.0000 C.3     1  UNL1       -0.0348
     29 C          13.2583    2.0600    0.0000 C.3     1  UNL1        0.1325
     30 C          14.1244    0.5600    0.0000 C.3     1  UNL1        0.1325
     31 C          15.8564    1.5600    0.0000 C.2     1  UNL1        0.3075
     32 C          11.5263    2.0600    0.0000 C.2     1  UNL1        0.3072
     33 C          13.2583   -0.9400    0.0000 C.2     1  UNL1        0.3072
     34 C          22.7846    1.5600    0.0000 C.2     1  UNL1       -0.0876
     35 C           4.5981    2.0600    0.0000 C.2     1  UNL1       -0.0876
     36 C           9.7942   -6.9400    0.0000 C.2     1  UNL1       -0.0876
     37 C          23.6506    2.0600    0.0000 C.2     1  UNL1       -0.0842
     38 C           3.7320    1.5600    0.0000 C.2     1  UNL1       -0.0842
     39 C           8.9282   -7.4400    0.0000 C.2     1  UNL1       -0.0842
     40 C          23.6506    3.0600    0.0000 C.3     1  UNL1       -0.0165
     41 C           3.7320    0.5600    0.0000 C.3     1  UNL1       -0.0165
     42 C           8.0622   -6.9400    0.0000 C.3     1  UNL1       -0.0165
     43 C          23.6506    6.0600    0.0000 C.3     1  UNL1       -0.0496
     44 C           3.7320   -2.4400    0.0000 C.3     1  UNL1       -0.0496
     45 C           5.4641   -5.4400    0.0000 C.3     1  UNL1       -0.0496
     46 C          23.6506    5.0600    0.0000 C.3     1  UNL1       -0.0348
     47 C          24.5167    3.5600    0.0000 C.2     1  UNL1       -0.0842
     48 C           3.7320   -1.4400    0.0000 C.3     1  UNL1       -0.0348
     49 C           6.3301   -5.9400    0.0000 C.3     1  UNL1       -0.0348
     50 C           2.8660    0.0600    0.0000 C.2     1  UNL1       -0.0842
     51 C           7.1962   -7.4400    0.0000 C.2     1  UNL1       -0.0842
     52 C          22.7846    6.5600    0.0000 C.3     1  UNL1       -0.0530
     53 C           2.8660   -2.9400    0.0000 C.3     1  UNL1       -0.0530
     54 C           4.5981   -5.9400    0.0000 C.3     1  UNL1       -0.0530
     55 C          24.5167    4.5600    0.0000 C.2     1  UNL1       -0.0876
     56 C           2.8660   -0.9400    0.0000 C.2     1  UNL1       -0.0876
     57 C           6.3301   -6.9400    0.0000 C.2     1  UNL1       -0.0876
     58 C          22.7846    7.5600    0.0000 C.3     1  UNL1       -0.0559
     59 C           2.8660   -3.9400    0.0000 C.3     1  UNL1       -0.0559
     60 C           3.7320   -5.4400    0.0000 C.3     1  UNL1       -0.0559
     61 C          21.9186    8.0600    0.0000 C.3     1  UNL1       -0.0653
     62 C           2.0000   -4.4400    0.0000 C.3     1  UNL1       -0.0653
     63 C           2.8660   -5.9400    0.0000 C.3     1  UNL1       -0.0653
     64 H          18.9220    1.0850    0.0000 H       1  UNL1        0.0265
     65 H          19.7190    1.0850    0.0000 H       1  UNL1        0.0265
     66 H          18.8530    2.5349    0.0000 H       1  UNL1        0.0265
     67 H          18.0560    2.5349    0.0000 H       1  UNL1        0.0265
     68 H          20.5851    2.5349    0.0000 H       1  UNL1        0.0265
     69 H          19.7880    2.5349    0.0000 H       1  UNL1        0.0265
     70 H           8.4607    2.5349    0.0000 H       1  UNL1        0.0265
     71 H           7.6636    2.5349    0.0000 H       1  UNL1        0.0265
     72 H          11.7383   -4.5226    0.0000 H       1  UNL1        0.0265
     73 H          12.1369   -3.8323    0.0000 H       1  UNL1        0.0265
     74 H           8.5297    1.0850    0.0000 H       1  UNL1        0.0265
     75 H           9.3267    1.0850    0.0000 H       1  UNL1        0.0265
     76 H          11.3142   -2.3574    0.0000 H       1  UNL1        0.0265
     77 H          10.9157   -3.0477    0.0000 H       1  UNL1        0.0265
     78 H           6.7976    1.0850    0.0000 H       1  UNL1        0.0265
     79 H           7.5947    1.0850    0.0000 H       1  UNL1        0.0265
     80 H          10.4482   -3.8574    0.0000 H       1  UNL1        0.0265
     81 H          10.0497   -4.5477    0.0000 H       1  UNL1        0.0265
     82 H          17.1899    1.0850    0.0000 H       1  UNL1        0.0270
     83 H          17.9870    1.0850    0.0000 H       1  UNL1        0.0270
     84 H          20.6540    1.0850    0.0000 H       1  UNL1        0.0268
     85 H          21.4511    1.0850    0.0000 H       1  UNL1        0.0268
     86 H          10.1928    2.5349    0.0000 H       1  UNL1        0.0270
     87 H           9.3957    2.5349    0.0000 H       1  UNL1        0.0270
     88 H          12.6044   -3.0226    0.0000 H       1  UNL1        0.0270
     89 H          13.0029   -2.3323    0.0000 H       1  UNL1        0.0270
     90 H           6.7287    2.5349    0.0000 H       1  UNL1        0.0268
     91 H           5.9316    2.5349    0.0000 H       1  UNL1        0.0268
     92 H          10.8723   -6.0226    0.0000 H       1  UNL1        0.0268
     93 H          11.2708   -5.3323    0.0000 H       1  UNL1        0.0268
     94 H          17.1210    2.5349    0.0000 H       1  UNL1        0.0377
     95 H          16.3239    2.5349    0.0000 H       1  UNL1        0.0377
     96 H          10.2617    1.0850    0.0000 H       1  UNL1        0.0377
     97 H          11.0588    1.0850    0.0000 H       1  UNL1        0.0377
     98 H          12.1803   -0.8574    0.0000 H       1  UNL1        0.0377
     99 H          11.7817   -1.5477    0.0000 H       1  UNL1        0.0377
    100 H          22.3171    2.5349    0.0000 H       1  UNL1        0.0307
    101 H          21.5201    2.5349    0.0000 H       1  UNL1        0.0307
    102 H          14.1244    2.1800    0.0000 H       1  UNL1        0.0803
    103 H           5.0656    1.0850    0.0000 H       1  UNL1        0.0307
    104 H           5.8626    1.0850    0.0000 H       1  UNL1        0.0307
    105 H           9.5822   -5.3574    0.0000 H       1  UNL1        0.0307
    106 H           9.1836   -6.0477    0.0000 H       1  UNL1        0.0307
    107 H          13.6569    2.5349    0.0000 H       1  UNL1        0.0736
    108 H          12.8598    2.5349    0.0000 H       1  UNL1        0.0736
    109 H          14.3364   -0.0226    0.0000 H       1  UNL1        0.0736
    110 H          14.7349    0.6677    0.0000 H       1  UNL1        0.0736
    111 H          22.7846    0.9400    0.0000 H       1  UNL1        0.0569
    112 H           4.5981    2.6800    0.0000 H       1  UNL1        0.0569
    113 H          10.3312   -7.2500    0.0000 H       1  UNL1        0.0569
    114 H          24.1876    1.7500    0.0000 H       1  UNL1        0.0572
    115 H           3.1951    1.8700    0.0000 H       1  UNL1        0.0572
    116 H           8.9282   -8.0600    0.0000 H       1  UNL1        0.0572
    117 H          23.4386    3.6426    0.0000 H       1  UNL1        0.0350
    118 H          23.0401    2.9523    0.0000 H       1  UNL1        0.0350
    119 H           3.9441   -0.0226    0.0000 H       1  UNL1        0.0350
    120 H           4.3426    0.6677    0.0000 H       1  UNL1        0.0350
    121 H           8.4607   -6.4650    0.0000 H       1  UNL1        0.0350
    122 H           7.6636   -6.4650    0.0000 H       1  UNL1        0.0350
    123 H          24.2612    5.9523    0.0000 H       1  UNL1        0.0268
    124 H          23.8627    6.6426    0.0000 H       1  UNL1        0.0268
    125 H           3.9441   -3.0226    0.0000 H       1  UNL1        0.0268
    126 H           4.3426   -2.3323    0.0000 H       1  UNL1        0.0268
    127 H           5.8626   -4.9650    0.0000 H       1  UNL1        0.0268
    128 H           5.0656   -4.9650    0.0000 H       1  UNL1        0.0268
    129 H          23.0401    5.1677    0.0000 H       1  UNL1        0.0307
    130 H          23.4386    4.4774    0.0000 H       1  UNL1        0.0307
    131 H          25.0536    3.2500    0.0000 H       1  UNL1        0.0572
    132 H           4.3426   -1.5477    0.0000 H       1  UNL1        0.0307
    133 H           3.9441   -0.8574    0.0000 H       1  UNL1        0.0307
    134 H           6.9407   -6.0477    0.0000 H       1  UNL1        0.0307
    135 H           6.5422   -5.3574    0.0000 H       1  UNL1        0.0307
    136 H           2.3291    0.3700    0.0000 H       1  UNL1        0.0572
    137 H           7.1962   -8.0600    0.0000 H       1  UNL1        0.0572
    138 H          22.1740    6.6677    0.0000 H       1  UNL1        0.0265
    139 H          22.5726    5.9774    0.0000 H       1  UNL1        0.0265
    140 H           2.6540   -2.3574    0.0000 H       1  UNL1        0.0265
    141 H           2.2554   -3.0477    0.0000 H       1  UNL1        0.0265
    142 H           4.1996   -6.4150    0.0000 H       1  UNL1        0.0265
    143 H           4.9966   -6.4150    0.0000 H       1  UNL1        0.0265
    144 H          25.0536    4.8700    0.0000 H       1  UNL1        0.0569
    145 H           2.3291   -1.2500    0.0000 H       1  UNL1        0.0569
    146 H           5.7932   -7.2500    0.0000 H       1  UNL1        0.0569
    147 H          23.3952    7.4523    0.0000 H       1  UNL1        0.0263
    148 H          22.9967    8.1426    0.0000 H       1  UNL1        0.0263
    149 H           3.0781   -4.5226    0.0000 H       1  UNL1        0.0263
    150 H           3.4766   -3.8323    0.0000 H       1  UNL1        0.0263
    151 H           4.1306   -4.9650    0.0000 H       1  UNL1        0.0263
    152 H           3.3335   -4.9650    0.0000 H       1  UNL1        0.0263
    153 H          22.2286    8.5969    0.0000 H       1  UNL1        0.0230
    154 H          21.3816    8.3700    0.0000 H       1  UNL1        0.0230
    155 H          21.6086    7.5231    0.0000 H       1  UNL1        0.0230
    156 H           1.6900   -3.9031    0.0000 H       1  UNL1        0.0230
    157 H           1.4631   -4.7500    0.0000 H       1  UNL1        0.0230
    158 H           2.3100   -4.9769    0.0000 H       1  UNL1        0.0230
    159 H           2.5560   -5.4031    0.0000 H       1  UNL1        0.0230
    160 H           2.3291   -6.2500    0.0000 H       1  UNL1        0.0230
    161 H           3.1760   -6.4769    0.0000 H       1  UNL1        0.0230
@<TRIPOS>BOND
     1     1    26    1
     2     1    31    1
     3     2    29    1
     4     2    32    1
     5     3    30    1
     6     3    33    1
     7     4    31    2
     8     5    32    2
     9     6    33    2
    10     7     8    1
    11     7     9    1
    12     7    64    1
    13     7    65    1
    14     8    16    1
    15     8    66    1
    16     8    67    1
    17     9    17    1
    18     9    68    1
    19     9    69    1
    20    10    12    1
    21    10    14    1
    22    10    70    1
    23    10    71    1
    24    11    13    1
    25    11    15    1
    26    11    72    1
    27    11    73    1
    28    12    18    1
    29    12    74    1
    30    12    75    1
    31    13    19    1
    32    13    76    1
    33    13    77    1
    34    14    20    1
    35    14    78    1
    36    14    79    1
    37    15    21    1
    38    15    80    1
    39    15    81    1
    40    16    22    1
    41    16    82    1
    42    16    83    1
    43    17    25    1
    44    17    84    1
    45    17    85    1
    46    18    23    1
    47    18    86    1
    48    18    87    1
    49    19    24    1
    50    19    88    1
    51    19    89    1
    52    20    27    1
    53    20    90    1
    54    20    91    1
    55    21    28    1
    56    21    92    1
    57    21    93    1
    58    22    31    1
    59    22    94    1
    60    22    95    1
    61    23    32    1
    62    23    96    1
    63    23    97    1
    64    24    33    1
    65    24    98    1
    66    24    99    1
    67    25    34    1
    68    25   100    1
    69    25   101    1
    70    26    29    1
    71    26    30    1
    72    26   102    1
    73    27    35    1
    74    27   103    1
    75    27   104    1
    76    28    36    1
    77    28   105    1
    78    28   106    1
    79    29   107    1
    80    29   108    1
    81    30   109    1
    82    30   110    1
    83    34    37    2
    84    34   111    1
    85    35    38    2
    86    35   112    1
    87    36    39    2
    88    36   113    1
    89    37    40    1
    90    37   114    1
    91    38    41    1
    92    38   115    1
    93    39    42    1
    94    39   116    1
    95    40    47    1
    96    40   117    1
    97    40   118    1
    98    41    50    1
    99    41   119    1
   100    41   120    1
   101    42    51    1
   102    42   121    1
   103    42   122    1
   104    43    46    1
   105    43    52    1
   106    43   123    1
   107    43   124    1
   108    44    48    1
   109    44    53    1
   110    44   125    1
   111    44   126    1
   112    45    49    1
   113    45    54    1
   114    45   127    1
   115    45   128    1
   116    46    55    1
   117    46   129    1
   118    46   130    1
   119    47    55    2
   120    47   131    1
   121    48    56    1
   122    48   132    1
   123    48   133    1
   124    49    57    1
   125    49   134    1
   126    49   135    1
   127    50    56    2
   128    50   136    1
   129    51    57    2
   130    51   137    1
   131    52    58    1
   132    52   138    1
   133    52   139    1
   134    53    59    1
   135    53   140    1
   136    53   141    1
   137    54    60    1
   138    54   142    1
   139    54   143    1
   140    55   144    1
   141    56   145    1
   142    57   146    1
   143    58    61    1
   144    58   147    1
   145    58   148    1
   146    59    62    1
   147    59   149    1
   148    59   150    1
   149    60    63    1
   150    60   151    1
   151    60   152    1
   152    61   153    1
   153    61   154    1
   154    61   155    1
   155    62   156    1
   156    62   157    1
   157    62   158    1
   158    63   159    1
   159    63   160    1
   160    63   161    1
