@<TRIPOS>MOLECULE
IMPHY006707
 37 39 0 0 0
SMALL
GASTEIGER

@<TRIPOS>ATOM
      1 O           4.6497    0.8813    0.0000 O.3     1  UNL1       -0.5028
      2 O           2.8680   -0.1291    0.0000 O.3     1  UNL1       -0.4885
      3 O           2.8680   -2.1774    0.0000 O.3     1  UNL1       -0.4913
      4 O           9.0501    1.3918    0.0000 O.3     1  UNL1       -0.5067
      5 O           6.6630    2.5973    0.0000 O.3     1  UNL1       -0.4771
      6 O           5.0425    1.9862    0.0000 O.2     1  UNL1       -0.2451
      7 C           5.5320   -0.6533    0.0000 C.ar    1  UNL1        0.0359
      8 C           6.3981   -0.1533    0.0000 C.ar    1  UNL1        0.0076
      9 C           5.5320   -1.6533    0.0000 C.ar    1  UNL1       -0.0101
     10 C           7.2641   -0.6533    0.0000 C.ar    1  UNL1       -0.0129
     11 C           4.6381   -0.1186    0.0000 C.ar    1  UNL1        0.1706
     12 C           6.3820    0.8882    0.0000 C.ar    1  UNL1        0.0706
     13 C           6.3981   -2.1533    0.0000 C.ar    1  UNL1       -0.0532
     14 C           7.2641   -1.6533    0.0000 C.ar    1  UNL1       -0.0533
     15 C           4.6381   -2.1880    0.0000 C.ar    1  UNL1       -0.0083
     16 C           3.7320   -0.6325    0.0000 C.ar    1  UNL1        0.2039
     17 C           8.1741   -0.1464    0.0000 C.ar    1  UNL1       -0.0124
     18 C           3.7320   -1.6741    0.0000 C.ar    1  UNL1        0.1658
     19 C           7.2800    1.4160    0.0000 C.ar    1  UNL1       -0.0056
     20 C           8.1821    0.8952    0.0000 C.ar    1  UNL1        0.1182
     21 C           6.0291    1.8239    0.0000 C.2     1  UNL1        0.3375
     22 C           2.0000   -0.6258    0.0000 C.3     1  UNL1        0.0791
     23 C           2.8718   -3.1774    0.0000 C.3     1  UNL1        0.0790
     24 H           6.3981   -2.7733    0.0000 H       1  UNL1        0.0624
     25 H           7.8010   -1.9633    0.0000 H       1  UNL1        0.0624
     26 H           4.6453   -2.8079    0.0000 H       1  UNL1        0.0661
     27 H           8.7074   -0.4626    0.0000 H       1  UNL1        0.0660
     28 H           7.2777    2.0360    0.0000 H       1  UNL1        0.0662
     29 H           4.1164    1.1975    0.0000 H       1  UNL1        0.2923
     30 H           9.5858    1.0797    0.0000 H       1  UNL1        0.2921
     31 H           1.6921   -0.0877    0.0000 H       1  UNL1        0.0660
     32 H           1.4619   -0.9337    0.0000 H       1  UNL1        0.0660
     33 H           2.3079   -1.1639    0.0000 H       1  UNL1        0.0660
     34 H           2.2518   -3.1798    0.0000 H       1  UNL1        0.0660
     35 H           2.8742   -3.7974    0.0000 H       1  UNL1        0.0660
     36 H           3.4918   -3.1750    0.0000 H       1  UNL1        0.0660
     37 H           6.4443    3.1774    0.0000 H       1  UNL1        0.2954
@<TRIPOS>BOND
     1     1    11    1
     2     1    29    1
     3     2    16    1
     4     2    22    1
     5     3    18    1
     6     3    23    1
     7     4    20    1
     8     4    30    1
     9     5    21    1
    10     5    37    1
    11     6    21    2
    12     7     8   ar
    13     7     9   ar
    14     7    11   ar
    15     8    10   ar
    16     8    12   ar
    17     9    13   ar
    18     9    15   ar
    19    10    14   ar
    20    10    17   ar
    21    11    16   ar
    22    12    19   ar
    23    12    21    1
    24    13    14   ar
    25    13    24    1
    26    14    25    1
    27    15    18   ar
    28    15    26    1
    29    16    18   ar
    30    17    20   ar
    31    17    27    1
    32    19    20   ar
    33    19    28    1
    34    22    31    1
    35    22    32    1
    36    22    33    1
    37    23    34    1
    38    23    35    1
    39    23    36    1
