@<TRIPOS>MOLECULE
IMPHY008944
 12 16 0 0 0
SMALL
GASTEIGER

@<TRIPOS>ATOM
      1 C           2.0000   -0.7000    0.0000 C.3     1  UNL1       -0.0008
      2 C           2.0000    0.3000    0.0000 C.3     1  UNL1       -0.0008
      3 C           2.4000   -0.3000    0.0000 C.3     1  UNL1        0.0134
      4 C           3.0000    0.3000    0.0000 C.3     1  UNL1        0.0134
      5 C           3.0000   -0.7000    0.0000 C.2     1  UNL1       -0.0530
      6 C           2.4000    0.7000    0.0000 C.2     1  UNL1       -0.0530
      7 C           3.4000   -0.3000    0.0000 C.2     1  UNL1       -0.0358
      8 C           3.4000    0.7000    0.0000 C.2     1  UNL1       -0.0358
      9 H           1.5616   -1.1384    0.0000 H       1  UNL1        0.0361
     10 H           1.4272    0.5373    0.0000 H       1  UNL1        0.0361
     11 H           1.8272   -0.0627    0.0000 H       1  UNL1        0.0400
     12 H           3.5728    0.0627    0.0000 H       1  UNL1        0.0400
@<TRIPOS>BOND
     1     1     2    1
     2     1     3    1
     3     1     5    1
     4     1     9    1
     5     2     4    1
     6     2     6    1
     7     2    10    1
     8     3     6    1
     9     3     7    1
    10     3    11    1
    11     4     5    1
    12     4     8    1
    13     4    12    1
    14     5     7    2
    15     6     8    2
    16     7     8    1
