@<TRIPOS>MOLECULE
IMPHY010257
 82 87 0 0 0
SMALL
GASTEIGER

@<TRIPOS>ATOM
      1 O          12.1691   -1.9269    0.0000 O.3     1  UNL1       -0.3481
      2 O          11.3900    1.7152    0.0000 O.3     1  UNL1       -0.3877
      3 O          13.4035   -2.2616    0.0000 O.3     1  UNL1       -0.3644
      4 O           6.0010    2.7884    0.0000 O.3     1  UNL1       -0.3480
      5 O           4.2690    2.7884    0.0000 O.3     1  UNL1       -0.3467
      6 O           4.2690   -0.2116    0.0000 O.3     1  UNL1       -0.3780
      7 N           2.5369    0.7884    0.0000 N.3     1  UNL1       -0.3231
      8 C          11.3823   -0.2847    0.0000 C.3     1  UNL1        0.0309
      9 C          11.3862    0.7153    0.0000 C.3     1  UNL1        0.0773
     10 C          10.5221    1.2186    0.0000 C.3     1  UNL1       -0.0082
     11 C           9.6541    0.7219    0.0000 C.3     1  UNL1       -0.0299
     12 C          12.3274   -0.5931    0.0000 C.3     1  UNL1        0.0231
     13 C           8.7461    1.2323    0.0000 C.3     1  UNL1       -0.0259
     14 C          10.5144   -0.7814    0.0000 C.3     1  UNL1       -0.0419
     15 C          12.3336    1.0163    0.0000 C.3     1  UNL1       -0.0227
     16 C           9.6503   -0.2781    0.0000 C.3     1  UNL1       -0.0487
     17 C          12.9141    0.2094    0.0000 C.3     1  UNL1       -0.0420
     18 C           8.7421    2.2739    0.0000 C.3     1  UNL1       -0.0330
     19 C          10.5422    2.2600    0.0000 C.3     1  UNL1       -0.0470
     20 C          11.2803   -1.2677    0.0000 C.3     1  UNL1        0.0596
     21 C          12.8181   -1.4508    0.0000 C.3     1  UNL1        0.1678
     22 C           9.6462    2.7912    0.0000 C.3     1  UNL1       -0.0493
     23 C           7.8171    0.6718    0.0000 C.3     1  UNL1       -0.0448
     24 C           7.8088    2.8272    0.0000 C.3     1  UNL1       -0.0232
     25 C           8.7500    0.2323    0.0000 C.3     1  UNL1       -0.0590
     26 C           6.8712    1.2034    0.0000 C.3     1  UNL1       -0.0260
     27 C           6.8671    2.2884    0.0000 C.3     1  UNL1        0.0620
     28 C          13.7701   -1.1446    0.0000 C.3     1  UNL1       -0.0104
     29 C           5.1350    2.2884    0.0000 C.3     1  UNL1        0.1623
     30 C           5.1350    1.2884    0.0000 C.3     1  UNL1        0.0263
     31 C           4.2690    0.7884    0.0000 C.3     1  UNL1        0.0804
     32 C           3.4030    2.2884    0.0000 C.3     1  UNL1        0.0764
     33 C           3.4030    1.2884    0.0000 C.3     1  UNL1        0.0579
     34 C           2.5369    2.7884    0.0000 C.3     1  UNL1       -0.0370
     35 C           5.1350   -0.7116    0.0000 C.3     1  UNL1        0.0369
     36 H          11.2631    1.6350    0.0000 H       1  UNL1        0.0331
     37 H          10.3886    0.2941    0.0000 H       1  UNL1        0.0310
     38 H          13.1760   -0.6405    0.0000 H       1  UNL1        0.0360
     39 H          10.1140   -1.2548    0.0000 H       1  UNL1        0.0272
     40 H          10.9111   -1.2579    0.0000 H       1  UNL1        0.0272
     41 H          12.8721    1.3235    0.0000 H       1  UNL1        0.0293
     42 H          12.0847    1.5842    0.0000 H       1  UNL1        0.0293
     43 H           9.0401   -0.1680    0.0000 H       1  UNL1        0.0268
     44 H           9.4360   -0.8599    0.0000 H       1  UNL1        0.0268
     45 H          13.3733   -0.2071    0.0000 H       1  UNL1        0.0271
     46 H          13.3765    0.6223    0.0000 H       1  UNL1        0.0271
     47 H           8.7486    3.1239    0.0000 H       1  UNL1        0.0307
     48 H          11.1509    2.1422    0.0000 H       1  UNL1        0.0269
     49 H          10.7624    2.8396    0.0000 H       1  UNL1        0.0269
     50 H          10.6848   -1.0953    0.0000 H       1  UNL1        0.0567
     51 H          11.0051   -1.8232    0.0000 H       1  UNL1        0.0567
     52 H          10.0489    3.2626    0.0000 H       1  UNL1        0.0268
     53 H           9.2507    3.2687    0.0000 H       1  UNL1        0.0268
     54 H           7.4253    0.1912    0.0000 H       1  UNL1        0.0271
     55 H           8.2235    0.2035    0.0000 H       1  UNL1        0.0271
     56 H           8.2116    3.2986    0.0000 H       1  UNL1        0.0293
     57 H           7.4133    3.3047    0.0000 H       1  UNL1        0.0293
     58 H           8.1299    0.2299    0.0000 H       1  UNL1        0.0235
     59 H           8.7523   -0.3877    0.0000 H       1  UNL1        0.0235
     60 H           9.3699    0.2347    0.0000 H       1  UNL1        0.0235
     61 H          11.9282    2.0232    0.0000 H       1  UNL1        0.2102
     62 H           6.2600    1.3071    0.0000 H       1  UNL1        0.0290
     63 H           6.6644    0.6189    0.0000 H       1  UNL1        0.0290
     64 H           6.8683    2.9084    0.0000 H       1  UNL1        0.0597
     65 H          13.9600   -1.7349    0.0000 H       1  UNL1        0.0281
     66 H          14.3604   -0.9548    0.0000 H       1  UNL1        0.0281
     67 H          13.5803   -0.5544    0.0000 H       1  UNL1        0.0281
     68 H          13.1496   -2.8272    0.0000 H       1  UNL1        0.2128
     69 H           5.1350    2.9084    0.0000 H       1  UNL1        0.0910
     70 H           5.3471    0.7057    0.0000 H       1  UNL1        0.0340
     71 H           5.7456    1.3960    0.0000 H       1  UNL1        0.0340
     72 H           4.8059    0.4784    0.0000 H       1  UNL1        0.0614
     73 H           3.4030    2.9084    0.0000 H       1  UNL1        0.0610
     74 H           3.4030    0.6684    0.0000 H       1  UNL1        0.0509
     75 H           2.8469    3.3253    0.0000 H       1  UNL1        0.0255
     76 H           2.0000    3.0984    0.0000 H       1  UNL1        0.0255
     77 H           2.2269    2.2514    0.0000 H       1  UNL1        0.0255
     78 H           2.0000    1.0984    0.0000 H       1  UNL1        0.1186
     79 H           2.5369    0.1684    0.0000 H       1  UNL1        0.1186
     80 H           4.8250   -1.2486    0.0000 H       1  UNL1        0.0524
     81 H           5.6720   -1.0216    0.0000 H       1  UNL1        0.0524
     82 H           5.4450   -0.1747    0.0000 H       1  UNL1        0.0524
@<TRIPOS>BOND
     1     1    20    1
     2     1    21    1
     3     9     2    1
     4     2    61    1
     5    21     3    1
     6     3    68    1
     7    27     4    1
     8    29     4    1
     9     5    29    1
    10     5    32    1
    11    31     6    1
    12     6    35    1
    13    33     7    1
    14     7    78    1
    15     7    79    1
    16     8     9    1
    17     8    12    1
    18     8    14    1
    19     8    20    1
    20     9    10    1
    21     9    15    1
    22    10    11    1
    23    10    19    1
    24    10    36    1
    25    11    13    1
    26    11    16    1
    27    11    37    1
    28    12    17    1
    29    12    21    1
    30    12    38    1
    31    13    18    1
    32    13    23    1
    33    13    25    1
    34    14    16    1
    35    14    39    1
    36    14    40    1
    37    15    17    1
    38    15    41    1
    39    15    42    1
    40    16    43    1
    41    16    44    1
    42    17    45    1
    43    17    46    1
    44    18    22    1
    45    18    24    1
    46    18    47    1
    47    19    22    1
    48    19    48    1
    49    19    49    1
    50    20    50    1
    51    20    51    1
    52    21    28    1
    53    22    52    1
    54    22    53    1
    55    23    26    1
    56    23    54    1
    57    23    55    1
    58    24    27    1
    59    24    56    1
    60    24    57    1
    61    25    58    1
    62    25    59    1
    63    25    60    1
    64    26    27    1
    65    26    62    1
    66    26    63    1
    67    27    64    1
    68    28    65    1
    69    28    66    1
    70    28    67    1
    71    29    30    1
    72    29    69    1
    73    30    31    1
    74    30    70    1
    75    30    71    1
    76    31    33    1
    77    31    72    1
    78    32    33    1
    79    32    34    1
    80    32    73    1
    81    33    74    1
    82    34    75    1
    83    34    76    1
    84    34    77    1
    85    35    80    1
    86    35    81    1
    87    35    82    1
