@<TRIPOS>MOLECULE
IMPHY003468
 52 54 0 0 0
SMALL
GASTEIGER

@<TRIPOS>ATOM
      1 O           6.8671   -1.0950    0.0000 O.3     1  UNL1       -0.3096
      2 O           6.0010    0.4050    0.0000 O.2     1  UNL1       -0.4702
      3 O           5.1350   -1.0950    0.0000 O.3     1  UNL1       -0.3404
      4 O           6.8671   -3.0950    0.0000 O.3     1  UNL1       -0.3841
      5 O           5.1350   -4.0950    0.0000 O.3     1  UNL1       -0.3864
      6 O           3.4030   -3.0950    0.0000 O.3     1  UNL1       -0.3865
      7 O           6.0010    3.4050    0.0000 O.3     1  UNL1       -0.4646
      8 O           7.7331    3.4050    0.0000 O.2     1  UNL1       -0.2452
      9 O           2.5369   -1.5950    0.0000 O.3     1  UNL1       -0.3924
     10 C           7.7331    0.4050    0.0000 C.3     1  UNL1        0.0314
     11 C           7.7331    1.4050    0.0000 C.3     1  UNL1        0.0026
     12 C           8.6793    0.1003    0.0000 C.3     1  UNL1       -0.0348
     13 C           8.6793    1.7097    0.0000 C.3     1  UNL1       -0.0452
     14 C           9.2629    0.9050    0.0000 C.3     1  UNL1       -0.0494
     15 C           6.8671   -0.0950    0.0000 C.3     1  UNL1        0.2071
     16 C           6.8671    1.9050    0.0000 C.2     1  UNL1        0.0743
     17 C           8.9900   -0.8503    0.0000 C.3     1  UNL1       -0.0619
     18 C           6.0010   -1.5950    0.0000 C.3     1  UNL1        0.1918
     19 C           6.0010    1.4050    0.0000 C.2     1  UNL1        0.0981
     20 C           6.0010   -2.5950    0.0000 C.3     1  UNL1        0.1342
     21 C           5.1350   -3.0950    0.0000 C.3     1  UNL1        0.1141
     22 C           4.2690   -2.5950    0.0000 C.3     1  UNL1        0.1119
     23 C           4.2690   -1.5950    0.0000 C.3     1  UNL1        0.1130
     24 C           6.8671    2.9050    0.0000 C.2     1  UNL1        0.3381
     25 C           3.4030   -1.0950    0.0000 C.3     1  UNL1        0.0730
     26 C           6.0010    4.4050    0.0000 C.3     1  UNL1        0.0820
     27 H           7.8230   -0.4402    0.0000 H       1  UNL1        0.0370
     28 H           7.8230    2.2502    0.0000 H       1  UNL1        0.0357
     29 H           8.2418   -0.3391    0.0000 H       1  UNL1        0.0303
     30 H           9.2167    2.0190    0.0000 H       1  UNL1        0.0271
     31 H           8.4283    2.2766    0.0000 H       1  UNL1        0.0271
     32 H           9.7238    0.4903    0.0000 H       1  UNL1        0.0268
     33 H           9.7238    1.3197    0.0000 H       1  UNL1        0.0268
     34 H           7.4040   -0.4050    0.0000 H       1  UNL1        0.1059
     35 H           8.4006   -1.0429    0.0000 H       1  UNL1        0.0233
     36 H           9.1826   -1.4396    0.0000 H       1  UNL1        0.0233
     37 H           9.5793   -0.6576    0.0000 H       1  UNL1        0.0233
     38 H           6.0010   -0.9750    0.0000 H       1  UNL1        0.0939
     39 H           5.4641    1.7150    0.0000 H       1  UNL1        0.1029
     40 H           6.0010   -3.2150    0.0000 H       1  UNL1        0.0671
     41 H           4.5981   -3.4050    0.0000 H       1  UNL1        0.0648
     42 H           3.7320   -2.2850    0.0000 H       1  UNL1        0.0647
     43 H           4.2690   -0.9750    0.0000 H       1  UNL1        0.0647
     44 H           3.8015   -0.6201    0.0000 H       1  UNL1        0.0584
     45 H           3.0044   -0.6201    0.0000 H       1  UNL1        0.0584
     46 H           6.8671   -3.7150    0.0000 H       1  UNL1        0.2101
     47 H           4.5981   -4.4050    0.0000 H       1  UNL1        0.2100
     48 H           3.4030   -3.7150    0.0000 H       1  UNL1        0.2100
     49 H           2.0000   -1.2850    0.0000 H       1  UNL1        0.2095
     50 H           6.6210    4.4050    0.0000 H       1  UNL1        0.0661
     51 H           6.0010    5.0250    0.0000 H       1  UNL1        0.0661
     52 H           5.3810    4.4050    0.0000 H       1  UNL1        0.0661
@<TRIPOS>BOND
     1    15     1    1
     2    18     1    1
     3     2    15    1
     4     2    19    1
     5     3    18    1
     6     3    23    1
     7    20     4    1
     8     4    46    1
     9    21     5    1
    10     5    47    1
    11    22     6    1
    12     6    48    1
    13     7    24    1
    14     7    26    1
    15     8    24    2
    16     9    25    1
    17     9    49    1
    18    10    11    1
    19    10    12    1
    20    10    15    1
    21    10    27    1
    22    11    13    1
    23    11    16    1
    24    11    28    1
    25    12    14    1
    26    12    17    1
    27    12    29    1
    28    13    14    1
    29    13    30    1
    30    13    31    1
    31    14    32    1
    32    14    33    1
    33    15    34    1
    34    16    19    2
    35    16    24    1
    36    17    35    1
    37    17    36    1
    38    17    37    1
    39    18    20    1
    40    18    38    1
    41    19    39    1
    42    20    21    1
    43    20    40    1
    44    21    22    1
    45    21    41    1
    46    22    23    1
    47    22    42    1
    48    23    25    1
    49    23    43    1
    50    25    44    1
    51    25    45    1
    52    26    50    1
    53    26    51    1
    54    26    52    1
