@<TRIPOS>MOLECULE
IMPHY013672
 160 168 0 0 0
SMALL
GASTEIGER

@<TRIPOS>ATOM
      1 O           9.1562    4.1557    0.0000 O.3     1  UNL1       -0.3450
      2 O           7.6271    5.3876    0.0000 O.3     1  UNL1       -0.3642
      3 O           7.7331   -4.0884    0.0000 O.3     1  UNL1       -0.3454
      4 O           6.0010   -4.0884    0.0000 O.3     1  UNL1       -0.3405
      5 O           7.7331   -6.0884    0.0000 O.3     1  UNL1       -0.3377
      6 O          11.7907    7.2550    0.0000 O.3     1  UNL1       -0.3484
      7 O           6.0010   -7.0884    0.0000 O.3     1  UNL1       -0.3400
      8 O           4.2690   -6.0884    0.0000 O.3     1  UNL1       -0.3865
      9 O           8.5991   -4.5884    0.0000 O.3     1  UNL1       -0.3405
     10 O           4.2690   -3.0884    0.0000 O.3     1  UNL1       -0.3924
     11 O          13.2881    8.1255    0.0000 O.3     1  UNL1       -0.3405
     12 O           4.2690   -7.0884    0.0000 O.3     1  UNL1       -0.3431
     13 O           9.4651   -7.0884    0.0000 O.3     1  UNL1       -0.3841
     14 O          12.7959    5.5260    0.0000 O.3     1  UNL1       -0.3841
     15 O           6.0010   -9.0884    0.0000 O.3     1  UNL1       -0.3841
     16 O          11.1972   -6.0884    0.0000 O.3     1  UNL1       -0.3864
     17 O          14.7959    5.5319    0.0000 O.3     1  UNL1       -0.3864
     18 O          11.1972   -4.0884    0.0000 O.3     1  UNL1       -0.3865
     19 O          15.7907    7.2670    0.0000 O.3     1  UNL1       -0.3865
     20 O           4.2690  -10.0884    0.0000 O.3     1  UNL1       -0.3864
     21 O           2.5369   -9.0884    0.0000 O.3     1  UNL1       -0.3866
     22 O          10.3312   -2.5884    0.0000 O.3     1  UNL1       -0.3924
     23 O          14.2829    9.8605    0.0000 O.3     1  UNL1       -0.3924
     24 C           7.7624    2.1085    0.0000 C.3     1  UNL1       -0.0233
     25 C           8.6303    1.6118    0.0000 C.3     1  UNL1       -0.0298
     26 C           8.6342    0.6118    0.0000 C.3     1  UNL1       -0.0343
     27 C           7.9678    3.0811    0.0000 C.3     1  UNL1       -0.0015
     28 C           7.7701    0.1085    0.0000 C.3     1  UNL1       -0.0323
     29 C           7.7580   -0.9331    0.0000 C.3     1  UNL1       -0.0260
     30 C           8.9561    3.1880    0.0000 C.3     1  UNL1        0.0660
     31 C           9.3647    2.2817    0.0000 C.3     1  UNL1       -0.0226
     32 C           6.8983    1.6051    0.0000 C.3     1  UNL1       -0.0467
     33 C           6.9021    0.6051    0.0000 C.3     1  UNL1       -0.0489
     34 C           8.6581   -1.4574    0.0000 C.3     1  UNL1       -0.0330
     35 C           7.5655    3.9837    0.0000 C.3     1  UNL1        0.0158
     36 C           9.5461    0.1085    0.0000 C.3     1  UNL1       -0.0494
     37 C           9.5581   -0.9331    0.0000 C.3     1  UNL1       -0.0494
     38 C           6.8944    2.6051    0.0000 C.3     1  UNL1       -0.0590
     39 C           8.2985    4.6465    0.0000 C.3     1  UNL1        0.1704
     40 C           6.8081   -1.4574    0.0000 C.3     1  UNL1       -0.0448
     41 C           8.6706   -2.5423    0.0000 C.3     1  UNL1       -0.0232
     42 C           6.8939   -0.4297    0.0000 C.3     1  UNL1       -0.0590
     43 C           6.7956   -2.5423    0.0000 C.3     1  UNL1       -0.0260
     44 C           7.7331   -3.0884    0.0000 C.3     1  UNL1        0.0621
     45 C           6.5871    4.1904    0.0000 C.3     1  UNL1       -0.0572
     46 C           8.7959    5.5140    0.0000 C.3     1  UNL1        0.0018
     47 C           9.7959    5.5170    0.0000 C.3     1  UNL1       -0.0435
     48 C          10.2933    6.3845    0.0000 C.3     1  UNL1       -0.0201
     49 C           6.8671   -4.5884    0.0000 C.3     1  UNL1        0.1886
     50 C           6.8671   -5.5884    0.0000 C.3     1  UNL1        0.1410
     51 C          11.2933    6.3875    0.0000 C.3     1  UNL1        0.0533
     52 C           9.7907    7.2490    0.0000 C.3     1  UNL1       -0.0603
     53 C           6.0010   -6.0884    0.0000 C.3     1  UNL1        0.1209
     54 C           5.1350   -4.5884    0.0000 C.3     1  UNL1        0.1130
     55 C           5.1350   -5.5884    0.0000 C.3     1  UNL1        0.1123
     56 C           4.2690   -4.0884    0.0000 C.3     1  UNL1        0.0730
     57 C           8.5991   -5.5884    0.0000 C.3     1  UNL1        0.1885
     58 C          12.7907    7.2580    0.0000 C.3     1  UNL1        0.1879
     59 C           5.1350   -7.5884    0.0000 C.3     1  UNL1        0.1883
     60 C           9.4651   -6.0884    0.0000 C.3     1  UNL1        0.1341
     61 C          13.2933    6.3935    0.0000 C.3     1  UNL1        0.1341
     62 C           5.1350   -8.5884    0.0000 C.3     1  UNL1        0.1341
     63 C          10.3312   -5.5884    0.0000 C.3     1  UNL1        0.1141
     64 C          14.2933    6.3965    0.0000 C.3     1  UNL1        0.1141
     65 C           9.4651   -4.0884    0.0000 C.3     1  UNL1        0.1130
     66 C          10.3312   -4.5884    0.0000 C.3     1  UNL1        0.1119
     67 C          14.2881    8.1285    0.0000 C.3     1  UNL1        0.1130
     68 C          14.7907    7.2640    0.0000 C.3     1  UNL1        0.1119
     69 C           4.2690   -9.0884    0.0000 C.3     1  UNL1        0.1140
     70 C           3.4030   -7.5884    0.0000 C.3     1  UNL1        0.0873
     71 C           3.4030   -8.5884    0.0000 C.3     1  UNL1        0.1095
     72 C           9.4651   -3.0884    0.0000 C.3     1  UNL1        0.0730
     73 C          14.7855    8.9960    0.0000 C.3     1  UNL1        0.0730
     74 C           2.5369   -7.0884    0.0000 C.3     1  UNL1       -0.0361
     75 H           9.1980    1.3626    0.0000 H       1  UNL1        0.0310
     76 H           9.1675    0.9280    0.0000 H       1  UNL1        0.0306
     77 H           7.3512    3.0158    0.0000 H       1  UNL1        0.0335
     78 H           8.3058   -0.2036    0.0000 H       1  UNL1        0.0309
     79 H           9.5724    3.2559    0.0000 H       1  UNL1        0.0600
     80 H           9.7321    1.7823    0.0000 H       1  UNL1        0.0293
     81 H           9.9000    2.5946    0.0000 H       1  UNL1        0.0293
     82 H           6.6840    2.1869    0.0000 H       1  UNL1        0.0271
     83 H           6.2881    1.4951    0.0000 H       1  UNL1        0.0271
     84 H           6.2911    0.7105    0.0000 H       1  UNL1        0.0268
     85 H           6.6923    0.0217    0.0000 H       1  UNL1        0.0268
     86 H           9.1974   -1.7632    0.0000 H       1  UNL1        0.0307
     87 H           7.4040    4.5823    0.0000 H       1  UNL1        0.0354
     88 H          10.1581    0.0095    0.0000 H       1  UNL1        0.0268
     89 H           9.7484    0.6946    0.0000 H       1  UNL1        0.0268
     90 H           9.7739   -1.5143    0.0000 H       1  UNL1        0.0268
     91 H          10.1677   -0.8199    0.0000 H       1  UNL1        0.0268
     92 H           7.2023    3.1433    0.0000 H       1  UNL1        0.0235
     93 H           6.3563    2.9131    0.0000 H       1  UNL1        0.0235
     94 H           6.5865    2.0670    0.0000 H       1  UNL1        0.0235
     95 H           6.6058   -0.8713    0.0000 H       1  UNL1        0.0271
     96 H           6.1961   -1.5564    0.0000 H       1  UNL1        0.0271
     97 H           8.8864   -3.1235    0.0000 H       1  UNL1        0.0293
     98 H           9.2802   -2.4291    0.0000 H       1  UNL1        0.0293
     99 H           7.2060    0.1060    0.0000 H       1  UNL1        0.0235
    100 H           6.3582   -0.1177    0.0000 H       1  UNL1        0.0235
    101 H           6.5818   -0.9655    0.0000 H       1  UNL1        0.0235
    102 H           6.1860   -2.4291    0.0000 H       1  UNL1        0.0290
    103 H           6.5798   -3.1235    0.0000 H       1  UNL1        0.0290
    104 H           8.2706   -3.3974    0.0000 H       1  UNL1        0.0597
    105 H           6.7152    4.7970    0.0000 H       1  UNL1        0.0234
    106 H           5.9805    4.3185    0.0000 H       1  UNL1        0.0234
    107 H           6.4590    3.5838    0.0000 H       1  UNL1        0.0234
    108 H           8.9017    6.1249    0.0000 H       1  UNL1        0.0317
    109 H           8.2126    5.7243    0.0000 H       1  UNL1        0.0317
    110 H           7.8170    5.9778    0.0000 H       1  UNL1        0.2128
    111 H           9.6900    4.9061    0.0000 H       1  UNL1        0.0270
    112 H          10.3791    5.3067    0.0000 H       1  UNL1        0.0270
    113 H           9.6733    6.3826    0.0000 H       1  UNL1        0.0320
    114 H           7.4040   -4.8984    0.0000 H       1  UNL1        0.0938
    115 H           6.8671   -6.2084    0.0000 H       1  UNL1        0.0675
    116 H          11.1875    5.7766    0.0000 H       1  UNL1        0.0563
    117 H          11.8765    6.1772    0.0000 H       1  UNL1        0.0563
    118 H          10.3267    7.5606    0.0000 H       1  UNL1        0.0233
    119 H           9.4791    7.7850    0.0000 H       1  UNL1        0.0233
    120 H           9.2547    6.9374    0.0000 H       1  UNL1        0.0233
    121 H           5.4641   -6.3984    0.0000 H       1  UNL1        0.0651
    122 H           5.1350   -3.9684    0.0000 H       1  UNL1        0.0647
    123 H           4.5981   -5.2784    0.0000 H       1  UNL1        0.0647
    124 H           3.6584   -3.9807    0.0000 H       1  UNL1        0.0584
    125 H           4.0569   -4.6710    0.0000 H       1  UNL1        0.0584
    126 H           8.5991   -6.2084    0.0000 H       1  UNL1        0.0938
    127 H          12.4791    7.7940    0.0000 H       1  UNL1        0.0937
    128 H           3.7320   -5.7784    0.0000 H       1  UNL1        0.2100
    129 H           5.1350   -6.9684    0.0000 H       1  UNL1        0.0938
    130 H          10.0021   -6.3984    0.0000 H       1  UNL1        0.0671
    131 H          12.6733    6.3916    0.0000 H       1  UNL1        0.0671
    132 H           3.7320   -2.7784    0.0000 H       1  UNL1        0.2095
    133 H           5.1350   -9.2084    0.0000 H       1  UNL1        0.0671
    134 H          10.8681   -5.2784    0.0000 H       1  UNL1        0.0648
    135 H          13.9849    5.8586    0.0000 H       1  UNL1        0.0648
    136 H           8.9282   -3.7784    0.0000 H       1  UNL1        0.0647
    137 H          10.3312   -3.9684    0.0000 H       1  UNL1        0.0647
    138 H          13.9765    8.6645    0.0000 H       1  UNL1        0.0647
    139 H          15.1023    6.7280    0.0000 H       1  UNL1        0.0647
    140 H           3.7320   -9.3984    0.0000 H       1  UNL1        0.0648
    141 H           3.4030   -6.9684    0.0000 H       1  UNL1        0.0621
    142 H          10.0021   -7.3984    0.0000 H       1  UNL1        0.2101
    143 H           3.4030   -9.2084    0.0000 H       1  UNL1        0.0646
    144 H          13.1075    4.9899    0.0000 H       1  UNL1        0.2101
    145 H           9.2531   -2.5058    0.0000 H       1  UNL1        0.0584
    146 H           8.8546   -3.1961    0.0000 H       1  UNL1        0.0584
    147 H          15.2616    8.5989    0.0000 H       1  UNL1        0.0584
    148 H          15.2593    9.3960    0.0000 H       1  UNL1        0.0584
    149 H           6.0010   -9.7084    0.0000 H       1  UNL1        0.2101
    150 H          11.1972   -6.7084    0.0000 H       1  UNL1        0.2100
    151 H          15.4159    5.5338    0.0000 H       1  UNL1        0.2100
    152 H          11.7341   -4.3984    0.0000 H       1  UNL1        0.2100
    153 H           2.8469   -6.5515    0.0000 H       1  UNL1        0.0255
    154 H           2.0000   -6.7784    0.0000 H       1  UNL1        0.0255
    155 H           2.2269   -7.6253    0.0000 H       1  UNL1        0.0255
    156 H          16.0991    7.8048    0.0000 H       1  UNL1        0.2100
    157 H           3.7320  -10.3984    0.0000 H       1  UNL1        0.2100
    158 H           2.0000   -8.7784    0.0000 H       1  UNL1        0.2100
    159 H          10.8681   -2.8984    0.0000 H       1  UNL1        0.2095
    160 H          14.5913   10.3984    0.0000 H       1  UNL1        0.2095
@<TRIPOS>BOND
     1     1    30    1
     2     1    39    1
     3     2    39    1
     4     2   110    1
     5     3    44    1
     6     3    49    1
     7     4    49    1
     8     4    54    1
     9     5    50    1
    10     5    57    1
    11     6    51    1
    12     6    58    1
    13     7    53    1
    14     7    59    1
    15     8    55    1
    16     8   128    1
    17     9    57    1
    18     9    65    1
    19    10    56    1
    20    10   132    1
    21    11    58    1
    22    11    67    1
    23    12    59    1
    24    12    70    1
    25    13    60    1
    26    13   142    1
    27    14    61    1
    28    14   144    1
    29    15    62    1
    30    15   149    1
    31    16    63    1
    32    16   150    1
    33    17    64    1
    34    17   151    1
    35    18    66    1
    36    18   152    1
    37    19    68    1
    38    19   156    1
    39    20    69    1
    40    20   157    1
    41    21    71    1
    42    21   158    1
    43    22    72    1
    44    22   159    1
    45    23    73    1
    46    23   160    1
    47    24    25    1
    48    24    27    1
    49    24    32    1
    50    24    38    1
    51    25    26    1
    52    25    31    1
    53    25    75    1
    54    26    28    1
    55    26    36    1
    56    26    76    1
    57    27    30    1
    58    27    35    1
    59    27    77    1
    60    28    29    1
    61    28    33    1
    62    28    78    1
    63    29    34    1
    64    29    40    1
    65    29    42    1
    66    30    31    1
    67    30    79    1
    68    31    80    1
    69    31    81    1
    70    32    33    1
    71    32    82    1
    72    32    83    1
    73    33    84    1
    74    33    85    1
    75    34    37    1
    76    34    41    1
    77    34    86    1
    78    35    39    1
    79    35    45    1
    80    35    87    1
    81    36    37    1
    82    36    88    1
    83    36    89    1
    84    37    90    1
    85    37    91    1
    86    38    92    1
    87    38    93    1
    88    38    94    1
    89    39    46    1
    90    40    43    1
    91    40    95    1
    92    40    96    1
    93    41    44    1
    94    41    97    1
    95    41    98    1
    96    42    99    1
    97    42   100    1
    98    42   101    1
    99    43    44    1
   100    43   102    1
   101    43   103    1
   102    44   104    1
   103    45   105    1
   104    45   106    1
   105    45   107    1
   106    46    47    1
   107    46   108    1
   108    46   109    1
   109    47    48    1
   110    47   111    1
   111    47   112    1
   112    48    51    1
   113    48    52    1
   114    48   113    1
   115    49    50    1
   116    49   114    1
   117    50    53    1
   118    50   115    1
   119    51   116    1
   120    51   117    1
   121    52   118    1
   122    52   119    1
   123    52   120    1
   124    53    55    1
   125    53   121    1
   126    54    55    1
   127    54    56    1
   128    54   122    1
   129    55   123    1
   130    56   124    1
   131    56   125    1
   132    57    60    1
   133    57   126    1
   134    58    61    1
   135    58   127    1
   136    59    62    1
   137    59   129    1
   138    60    63    1
   139    60   130    1
   140    61    64    1
   141    61   131    1
   142    62    69    1
   143    62   133    1
   144    63    66    1
   145    63   134    1
   146    64    68    1
   147    64   135    1
   148    65    66    1
   149    65    72    1
   150    65   136    1
   151    66   137    1
   152    67    68    1
   153    67    73    1
   154    67   138    1
   155    68   139    1
   156    69    71    1
   157    69   140    1
   158    70    71    1
   159    70    74    1
   160    70   141    1
   161    71   143    1
   162    72   145    1
   163    72   146    1
   164    73   147    1
   165    73   148    1
   166    74   153    1
   167    74   154    1
   168    74   155    1
