@<TRIPOS>MOLECULE
IMPHY005552
 46 47 0 0 0
SMALL
GASTEIGER

@<TRIPOS>ATOM
      1 O           3.7320   -2.5000    0.0000 O.3     1  UNL1       -0.4914
      2 O           7.1962    2.5000    0.0000 O.3     1  UNL1       -0.4914
      3 O           3.7320   -0.5000    0.0000 O.3     1  UNL1       -0.5029
      4 O           7.1962    0.5000    0.0000 O.3     1  UNL1       -0.5029
      5 O           8.0622   -5.0000    0.0000 O.3     1  UNL1       -0.4775
      6 O           2.8660    5.0000    0.0000 O.3     1  UNL1       -0.4775
      7 O           8.9282   -3.5000    0.0000 O.2     1  UNL1       -0.2458
      8 O           2.0000    3.5000    0.0000 O.2     1  UNL1       -0.2458
      9 C           5.4641   -0.5000    0.0000 C.ar    1  UNL1        0.0314
     10 C           5.4641    0.5000    0.0000 C.ar    1  UNL1        0.0314
     11 C           4.5981   -1.0000    0.0000 C.ar    1  UNL1        0.1665
     12 C           6.3301    1.0000    0.0000 C.ar    1  UNL1        0.1665
     13 C           6.3301   -1.0000    0.0000 C.ar    1  UNL1       -0.0430
     14 C           4.5981    1.0000    0.0000 C.ar    1  UNL1       -0.0430
     15 C           6.3301   -2.0000    0.0000 C.ar    1  UNL1       -0.0206
     16 C           4.5981    2.0000    0.0000 C.ar    1  UNL1       -0.0206
     17 C           4.5981   -2.0000    0.0000 C.ar    1  UNL1        0.1624
     18 C           6.3301    2.0000    0.0000 C.ar    1  UNL1        0.1624
     19 C           5.4641   -2.5000    0.0000 C.ar    1  UNL1       -0.0091
     20 C           5.4641    2.5000    0.0000 C.ar    1  UNL1       -0.0091
     21 C           7.1962   -2.5000    0.0000 C.2     1  UNL1       -0.0477
     22 C           3.7320    2.5000    0.0000 C.2     1  UNL1       -0.0477
     23 C           7.1962   -3.5000    0.0000 C.2     1  UNL1        0.0229
     24 C           3.7320    3.5000    0.0000 C.2     1  UNL1        0.0229
     25 C           3.7320   -3.5000    0.0000 C.3     1  UNL1        0.0790
     26 C           7.1962    3.5000    0.0000 C.3     1  UNL1        0.0790
     27 C           2.8660    4.0000    0.0000 C.2     1  UNL1        0.3296
     28 C           8.0622   -4.0000    0.0000 C.2     1  UNL1        0.3296
     29 H           6.8671   -0.6900    0.0000 H       1  UNL1        0.0631
     30 H           4.0611    0.6900    0.0000 H       1  UNL1        0.0631
     31 H           5.4641   -3.1200    0.0000 H       1  UNL1        0.0661
     32 H           5.4641    3.1200    0.0000 H       1  UNL1        0.0661
     33 H           7.7331   -2.1900    0.0000 H       1  UNL1        0.0626
     34 H           3.1951    2.1900    0.0000 H       1  UNL1        0.0626
     35 H           3.1951   -0.8100    0.0000 H       1  UNL1        0.2923
     36 H           7.7331    0.8100    0.0000 H       1  UNL1        0.2923
     37 H           6.6592   -3.8100    0.0000 H       1  UNL1        0.0689
     38 H           4.2690    3.8100    0.0000 H       1  UNL1        0.0689
     39 H           7.8162    3.5000    0.0000 H       1  UNL1        0.0660
     40 H           7.1962    4.1200    0.0000 H       1  UNL1        0.0660
     41 H           6.5762    3.5000    0.0000 H       1  UNL1        0.0660
     42 H           3.1120   -3.5000    0.0000 H       1  UNL1        0.0660
     43 H           3.7320   -4.1200    0.0000 H       1  UNL1        0.0660
     44 H           4.3520   -3.5000    0.0000 H       1  UNL1        0.0660
     45 H           8.5991   -5.3100    0.0000 H       1  UNL1        0.2954
     46 H           2.3291    5.3100    0.0000 H       1  UNL1        0.2954
@<TRIPOS>BOND
     1     1    17    1
     2     1    25    1
     3     2    18    1
     4     2    26    1
     5     3    11    1
     6     3    35    1
     7     4    12    1
     8     4    36    1
     9     5    28    1
    10     5    45    1
    11     6    27    1
    12     6    46    1
    13     7    28    2
    14     8    27    2
    15     9    10    1
    16     9    11   ar
    17     9    13   ar
    18    10    12   ar
    19    10    14   ar
    20    11    17   ar
    21    12    18   ar
    22    13    15   ar
    23    13    29    1
    24    14    16   ar
    25    14    30    1
    26    15    19   ar
    27    15    21    1
    28    16    20   ar
    29    16    22    1
    30    17    19   ar
    31    18    20   ar
    32    19    31    1
    33    20    32    1
    34    21    23    2
    35    21    33    1
    36    22    24    2
    37    22    34    1
    38    23    28    1
    39    23    37    1
    40    24    27    1
    41    24    38    1
    42    25    42    1
    43    25    43    1
    44    25    44    1
    45    26    39    1
    46    26    40    1
    47    26    41    1
