@<TRIPOS>MOLECULE
IMPHY004061
 52 55 0 0 0
SMALL
GASTEIGER

@<TRIPOS>ATOM
      1 O           5.5103    1.4285    0.0000 O.3     1  UNL1       -0.4908
      2 O           7.2762    2.4663    0.0000 O.3     1  UNL1       -0.4914
      3 O           4.6497    0.9316    0.0000 O.3     1  UNL1       -0.5029
      4 O           2.8680   -0.0788    0.0000 O.3     1  UNL1       -0.4914
      5 N           8.1223   -2.0999    0.0000 N.4     1  UNL1        0.2449
      6 C           7.2641   -1.6030    0.0000 C.3     1  UNL1        0.0113
      7 C           8.9878   -1.6157    0.0000 C.3     1  UNL1       -0.0259
      8 C           7.2641   -0.6030    0.0000 C.ar    1  UNL1        0.0154
      9 C           6.3981   -2.1030    0.0000 C.3     1  UNL1        0.0207
     10 C           9.0134   -0.6244    0.0000 C.3     1  UNL1        0.0134
     11 C           8.1741   -0.0961    0.0000 C.ar    1  UNL1       -0.0296
     12 C           8.6159   -2.9696    0.0000 C.3     1  UNL1       -0.0409
     13 C           7.6159   -2.9622    0.0000 C.3     1  UNL1       -0.0409
     14 C           6.3981   -0.1030    0.0000 C.ar    1  UNL1        0.0401
     15 C           5.5320   -1.6030    0.0000 C.ar    1  UNL1       -0.0301
     16 C           5.5320   -0.6030    0.0000 C.ar    1  UNL1        0.0347
     17 C           8.1821    0.9455    0.0000 C.ar    1  UNL1       -0.0124
     18 C           6.3820    0.9385    0.0000 C.ar    1  UNL1        0.1697
     19 C           7.2800    1.4663    0.0000 C.ar    1  UNL1        0.1624
     20 C           4.6381   -2.1376    0.0000 C.ar    1  UNL1       -0.0541
     21 C           4.6381   -0.0683    0.0000 C.ar    1  UNL1        0.1667
     22 C           3.7320   -0.5822    0.0000 C.ar    1  UNL1        0.1619
     23 C           3.7320   -1.6238    0.0000 C.ar    1  UNL1       -0.0160
     24 C           5.4987    2.4284    0.0000 C.3     1  UNL1        0.0790
     25 C           8.1403    2.9696    0.0000 C.3     1  UNL1        0.0790
     26 C           2.0000   -0.5755    0.0000 C.3     1  UNL1        0.0790
     27 H           7.2637   -2.2230    0.0000 H       1  UNL1        0.0908
     28 H           9.1895   -2.2020    0.0000 H       1  UNL1        0.0818
     29 H           9.6006   -1.5214    0.0000 H       1  UNL1        0.0818
     30 H           5.9995   -2.5779    0.0000 H       1  UNL1        0.0372
     31 H           6.7966   -2.5779    0.0000 H       1  UNL1        0.0372
     32 H           9.6205   -0.7502    0.0000 H       1  UNL1        0.0365
     33 H           9.2452   -0.0493    0.0000 H       1  UNL1        0.0365
     34 H           8.0767   -3.2756    0.0000 H       1  UNL1        0.0778
     35 H           7.0813   -2.6482    0.0000 H       1  UNL1        0.0778
     36 H           7.3020   -3.4968    0.0000 H       1  UNL1        0.0778
     37 H           8.1506   -3.2762    0.0000 H       1  UNL1        0.0778
     38 H           8.9219   -3.5088    0.0000 H       1  UNL1        0.0778
     39 H           9.1551   -2.6636    0.0000 H       1  UNL1        0.0778
     40 H           8.7203    1.2534    0.0000 H       1  UNL1        0.0658
     41 H           4.6453   -2.7576    0.0000 H       1  UNL1        0.0622
     42 H           3.1963   -1.9359    0.0000 H       1  UNL1        0.0655
     43 H           4.1164    1.2478    0.0000 H       1  UNL1        0.2923
     44 H           6.1187    2.4356    0.0000 H       1  UNL1        0.0660
     45 H           5.4915    3.0484    0.0000 H       1  UNL1        0.0660
     46 H           4.8787    2.4212    0.0000 H       1  UNL1        0.0660
     47 H           8.4523    2.4339    0.0000 H       1  UNL1        0.0660
     48 H           8.6760    3.2817    0.0000 H       1  UNL1        0.0660
     49 H           7.8282    3.5054    0.0000 H       1  UNL1        0.0660
     50 H           1.6921   -0.0374    0.0000 H       1  UNL1        0.0660
     51 H           1.4619   -0.8834    0.0000 H       1  UNL1        0.0660
     52 H           2.3079   -1.1136    0.0000 H       1  UNL1        0.0660
@<TRIPOS>UNITY_ATOM_ATTR
5 1
charge 1
@<TRIPOS>BOND
     1     1    18    1
     2     1    24    1
     3     2    19    1
     4     2    25    1
     5     3    21    1
     6     3    43    1
     7     4    22    1
     8     4    26    1
     9     5     6    1
    10     5     7    1
    11     5    12    1
    12     5    13    1
    13     6     8    1
    14     6     9    1
    15     6    27    1
    16     7    10    1
    17     7    28    1
    18     7    29    1
    19     8    11   ar
    20     8    14   ar
    21     9    15    1
    22     9    30    1
    23     9    31    1
    24    10    11    1
    25    10    32    1
    26    10    33    1
    27    11    17   ar
    28    12    34    1
    29    12    38    1
    30    12    39    1
    31    13    35    1
    32    13    36    1
    33    13    37    1
    34    14    16    1
    35    14    18   ar
    36    15    16   ar
    37    15    20   ar
    38    16    21   ar
    39    17    19   ar
    40    17    40    1
    41    18    19   ar
    42    20    23   ar
    43    20    41    1
    44    21    22   ar
    45    22    23   ar
    46    23    42    1
    47    24    44    1
    48    24    45    1
    49    24    46    1
    50    25    47    1
    51    25    48    1
    52    25    49    1
    53    26    50    1
    54    26    51    1
    55    26    52    1
