@<TRIPOS>MOLECULE
IMPHY014235
 49 51 0 0 0
SMALL
GASTEIGER

@<TRIPOS>ATOM
      1 O           5.1350    3.5194    0.0000 O.2     1  UNL1       -0.2923
      2 O           2.5369    1.0194    0.0000 O.3     1  UNL1       -0.3907
      3 O           4.7690   -3.5194    0.0000 O.2     1  UNL1       -0.4704
      4 C           6.0010    1.0194    0.0000 C.3     1  UNL1       -0.0117
      5 C           6.0010    2.0194    0.0000 C.3     1  UNL1        0.0329
      6 C           6.8950    2.5541    0.0000 C.3     1  UNL1       -0.0245
      7 C           6.8950    0.4848    0.0000 C.3     1  UNL1       -0.0461
      8 C           5.1350    0.5194    0.0000 C.3     1  UNL1        0.0071
      9 C           7.8010    2.0402    0.0000 C.3     1  UNL1       -0.0472
     10 C           7.8010    0.9986    0.0000 C.3     1  UNL1       -0.0520
     11 C           6.0010    0.0194    0.0000 C.3     1  UNL1       -0.0581
     12 C           5.1350    2.5194    0.0000 C.2     1  UNL1        0.1602
     13 C           7.3849    3.4258    0.0000 C.3     1  UNL1       -0.0591
     14 C           6.3850    3.4143    0.0000 C.3     1  UNL1       -0.0591
     15 C           4.2690    1.0194    0.0000 C.2     1  UNL1       -0.0338
     16 C           4.2690    2.0194    0.0000 C.2     1  UNL1       -0.0169
     17 C           5.1350   -0.4806    0.0000 C.2     1  UNL1       -0.0756
     18 C           3.4030    0.5194    0.0000 C.3     1  UNL1        0.0662
     19 C           4.2690   -0.9806    0.0000 C.2     1  UNL1       -0.0549
     20 C           4.2690   -1.9806    0.0000 C.ar    1  UNL1        0.0124
     21 C           3.4600   -2.5684    0.0000 C.ar    1  UNL1       -0.0168
     22 C           5.0780   -2.5684    0.0000 C.ar    1  UNL1        0.0988
     23 C           3.7690   -3.5194    0.0000 C.ar    1  UNL1        0.0923
     24 H           5.9945    2.8694    0.0000 H       1  UNL1        0.0392
     25 H           6.4904    0.0150    0.0000 H       1  UNL1        0.0271
     26 H           7.2886    0.0057    0.0000 H       1  UNL1        0.0271
     27 H           4.5981    0.2094    0.0000 H       1  UNL1        0.0394
     28 H           8.4119    1.9341    0.0000 H       1  UNL1        0.0271
     29 H           8.0101    2.6239    0.0000 H       1  UNL1        0.0271
     30 H           8.0101    0.4149    0.0000 H       1  UNL1        0.0266
     31 H           8.4119    1.1047    0.0000 H       1  UNL1        0.0266
     32 H           5.3810    0.0194    0.0000 H       1  UNL1        0.0236
     33 H           6.0010   -0.6006    0.0000 H       1  UNL1        0.0236
     34 H           6.6210    0.0194    0.0000 H       1  UNL1        0.0236
     35 H           7.9254    3.1221    0.0000 H       1  UNL1        0.0235
     36 H           7.6887    3.9663    0.0000 H       1  UNL1        0.0235
     37 H           6.8444    3.7296    0.0000 H       1  UNL1        0.0235
     38 H           6.9183    3.7305    0.0000 H       1  UNL1        0.0235
     39 H           6.0688    3.9476    0.0000 H       1  UNL1        0.0235
     40 H           5.8517    3.0981    0.0000 H       1  UNL1        0.0235
     41 H           3.7320    2.3294    0.0000 H       1  UNL1        0.0653
     42 H           5.6720   -0.7906    0.0000 H       1  UNL1        0.0578
     43 H           3.0044    0.0445    0.0000 H       1  UNL1        0.0604
     44 H           3.8015    0.0445    0.0000 H       1  UNL1        0.0604
     45 H           3.7320   -0.6706    0.0000 H       1  UNL1        0.0621
     46 H           2.0000    0.7094    0.0000 H       1  UNL1        0.2098
     47 H           2.8703   -2.3768    0.0000 H       1  UNL1        0.0655
     48 H           5.6677   -2.3768    0.0000 H       1  UNL1        0.1035
     49 H           3.4046   -4.0210    0.0000 H       1  UNL1        0.1029
@<TRIPOS>BOND
     1     1    12    2
     2     2    18    1
     3     2    46    1
     4     3    22   ar
     5     3    23   ar
     6     4     5    1
     7     4     7    1
     8     4     8    1
     9     4    11    1
    10     5     6    1
    11     5    12    1
    12     5    24    1
    13     6     9    1
    14     6    13    1
    15     6    14    1
    16     7    10    1
    17     7    25    1
    18     7    26    1
    19     8    15    1
    20     8    17    1
    21     8    27    1
    22     9    10    1
    23     9    28    1
    24     9    29    1
    25    10    30    1
    26    10    31    1
    27    11    32    1
    28    11    33    1
    29    11    34    1
    30    12    16    1
    31    13    35    1
    32    13    36    1
    33    13    37    1
    34    14    38    1
    35    14    39    1
    36    14    40    1
    37    15    16    2
    38    15    18    1
    39    16    41    1
    40    17    19    2
    41    17    42    1
    42    18    43    1
    43    18    44    1
    44    19    20    1
    45    19    45    1
    46    20    21   ar
    47    20    22   ar
    48    21    23   ar
    49    21    47    1
    50    22    48    1
    51    23    49    1
