@<TRIPOS>MOLECULE
IMPHY012270
 38 40 0 0 0
SMALL
GASTEIGER

@<TRIPOS>ATOM
      1 O           6.0290   -0.9226    0.0000 O.3     1  UNL1       -0.4826
      2 O           6.0174    2.1467    0.0000 O.2     1  UNL1       -0.2917
      3 O           4.2690    2.1121    0.0000 O.3     1  UNL1       -0.5056
      4 O           2.5369   -0.8879    0.0000 O.3     1  UNL1       -0.5060
      5 O          10.3914   -2.4221    0.0000 O.3     1  UNL1       -0.5068
      6 C           6.9350   -0.4087    0.0000 C.3     1  UNL1        0.1322
      7 C           6.9350    0.6329    0.0000 C.3     1  UNL1        0.0520
      8 C           5.1350    0.6121    0.0000 C.ar    1  UNL1        0.1012
      9 C           5.1350   -0.3879    0.0000 C.ar    1  UNL1        0.1418
     10 C           6.0290    1.1467    0.0000 C.2     1  UNL1        0.1740
     11 C           7.7991   -0.9121    0.0000 C.ar    1  UNL1       -0.0067
     12 C           4.2690   -0.8879    0.0000 C.ar    1  UNL1        0.0338
     13 C           4.2690    1.1121    0.0000 C.ar    1  UNL1        0.1372
     14 C           3.4030    0.6121    0.0000 C.ar    1  UNL1        0.0335
     15 C           3.4030   -0.3879    0.0000 C.ar    1  UNL1        0.1296
     16 C           4.2690   -1.8879    0.0000 C.3     1  UNL1       -0.0327
     17 C           8.6671   -0.4154    0.0000 C.ar    1  UNL1       -0.0516
     18 C           7.7953   -1.9121    0.0000 C.ar    1  UNL1       -0.0516
     19 C           2.5369    1.1121    0.0000 C.3     1  UNL1       -0.0327
     20 C           9.5312   -0.9188    0.0000 C.ar    1  UNL1       -0.0198
     21 C           8.6594   -2.4154    0.0000 C.ar    1  UNL1       -0.0198
     22 C           9.5273   -1.9187    0.0000 C.ar    1  UNL1        0.1169
     23 H           7.4726   -0.0998    0.0000 H       1  UNL1        0.0789
     24 H           7.5459    0.5268    0.0000 H       1  UNL1        0.0385
     25 H           7.1441    1.2166    0.0000 H       1  UNL1        0.0385
     26 H           3.6490   -1.8879    0.0000 H       1  UNL1        0.0280
     27 H           4.2690   -2.5079    0.0000 H       1  UNL1        0.0280
     28 H           4.8890   -1.8879    0.0000 H       1  UNL1        0.0280
     29 H           8.6694    0.2046    0.0000 H       1  UNL1        0.0623
     30 H           7.2571   -2.2200    0.0000 H       1  UNL1        0.0623
     31 H           2.8469    1.6490    0.0000 H       1  UNL1        0.0280
     32 H           2.0000    1.4221    0.0000 H       1  UNL1        0.0280
     33 H           2.2269    0.5751    0.0000 H       1  UNL1        0.0280
     34 H          10.0693   -0.6108    0.0000 H       1  UNL1        0.0654
     35 H           8.6570   -3.0354    0.0000 H       1  UNL1        0.0654
     36 H           3.7320    2.4221    0.0000 H       1  UNL1        0.2922
     37 H           2.0000   -0.5779    0.0000 H       1  UNL1        0.2922
     38 H          10.9295   -2.1142    0.0000 H       1  UNL1        0.2921
@<TRIPOS>BOND
     1     1     6    1
     2     1     9    1
     3     2    10    2
     4     3    13    1
     5     3    36    1
     6     4    15    1
     7     4    37    1
     8     5    22    1
     9     5    38    1
    10     6     7    1
    11     6    11    1
    12     6    23    1
    13     7    10    1
    14     7    24    1
    15     7    25    1
    16     8     9   ar
    17     8    10    1
    18     8    13   ar
    19     9    12   ar
    20    11    17   ar
    21    11    18   ar
    22    12    15   ar
    23    12    16    1
    24    13    14   ar
    25    14    15   ar
    26    14    19    1
    27    16    26    1
    28    16    27    1
    29    16    28    1
    30    17    20   ar
    31    17    29    1
    32    18    21   ar
    33    18    30    1
    34    19    31    1
    35    19    32    1
    36    19    33    1
    37    20    22   ar
    38    20    34    1
    39    21    22   ar
    40    21    35    1
