@<TRIPOS>MOLECULE
IMPHY014127
 81 82 0 0 0
SMALL
GASTEIGER

@<TRIPOS>ATOM
      1 O           4.5000   -1.5845    0.0000 O.3     1  UNL1       -0.3882
      2 O           5.9624    2.0177    0.0000 O.3     1  UNL1       -0.3905
      3 O           8.0524    2.9516    0.0000 O.3     1  UNL1       -0.3907
      4 O           5.8660    4.5135    0.0000 O.3     1  UNL1       -0.3950
      5 O           2.1340    3.5135    0.0000 O.2     1  UNL1       -0.2960
      6 C           5.0000    0.2815    0.0000 C.3     1  UNL1        0.0322
      7 C           4.5000   -0.5845    0.0000 C.3     1  UNL1        0.0721
      8 C           4.5000    1.1475    0.0000 C.3     1  UNL1       -0.0086
      9 C           5.5878    1.0905    0.0000 C.3     1  UNL1        0.0705
     10 C           5.5878   -0.5275    0.0000 C.3     1  UNL1       -0.0412
     11 C           6.5388    0.7815    0.0000 C.3     1  UNL1        0.0092
     12 C           6.5388   -0.2185    0.0000 C.3     1  UNL1       -0.0434
     13 C           3.5000   -0.5845    0.0000 C.3     1  UNL1       -0.0199
     14 C           3.5000    1.1475    0.0000 C.2     1  UNL1       -0.0597
     15 C           3.0000    0.2815    0.0000 C.3     1  UNL1       -0.0282
     16 C           5.0000    2.0135    0.0000 C.3     1  UNL1       -0.0437
     17 C           5.2660   -1.2273    0.0000 C.3     1  UNL1       -0.0354
     18 C           7.3479    1.3693    0.0000 C.2     1  UNL1       -0.0390
     19 C           5.0000    3.0135    0.0000 C.3     1  UNL1       -0.0292
     20 C           3.0000    2.0135    0.0000 C.2     1  UNL1       -0.0117
     21 C           7.2433    2.3638    0.0000 C.3     1  UNL1        0.0659
     22 C           8.2614    0.9625    0.0000 C.2     1  UNL1       -0.0600
     23 C           5.8660    3.5135    0.0000 C.3     1  UNL1        0.0442
     24 C           2.0000    2.0135    0.0000 C.3     1  UNL1       -0.0367
     25 C           3.0000    3.0135    0.0000 C.2     1  UNL1        0.1460
     26 C           8.3659   -0.0320    0.0000 C.2     1  UNL1       -0.0615
     27 C           9.2795   -0.4387    0.0000 C.2     1  UNL1       -0.0591
     28 C           9.3840   -1.4332    0.0000 C.2     1  UNL1       -0.0541
     29 C          10.2976   -1.8400    0.0000 C.3     1  UNL1       -0.0248
     30 C           8.5750   -2.0210    0.0000 C.2     1  UNL1       -0.0955
     31 C          10.4021   -2.8345    0.0000 C.3     1  UNL1       -0.0306
     32 C          11.3156   -3.2412    0.0000 C.2     1  UNL1       -0.0850
     33 C          11.4202   -4.2358    0.0000 C.2     1  UNL1       -0.0796
     34 C          12.3337   -4.6425    0.0000 C.3     1  UNL1       -0.0440
     35 C          10.6111   -4.8235    0.0000 C.3     1  UNL1       -0.0440
     36 H           4.1900    1.6844    0.0000 H       1  UNL1        0.0353
     37 H           5.0455    1.3911    0.0000 H       1  UNL1        0.0606
     38 H           5.0508   -0.8375    0.0000 H       1  UNL1        0.0273
     39 H           5.8400   -1.0939    0.0000 H       1  UNL1        0.0273
     40 H           6.4418    1.3939    0.0000 H       1  UNL1        0.0372
     41 H           6.6678   -0.8250    0.0000 H       1  UNL1        0.0272
     42 H           7.1554   -0.1537    0.0000 H       1  UNL1        0.0272
     43 H           2.9174   -0.7966    0.0000 H       1  UNL1        0.0296
     44 H           3.6077   -1.1951    0.0000 H       1  UNL1        0.0296
     45 H           2.5250    0.6800    0.0000 H       1  UNL1        0.0311
     46 H           2.5250   -0.1170    0.0000 H       1  UNL1        0.0311
     47 H           5.3985    1.5386    0.0000 H       1  UNL1        0.0272
     48 H           4.4011    2.1740    0.0000 H       1  UNL1        0.0272
     49 H           4.8675   -1.7023    0.0000 H       1  UNL1        0.0257
     50 H           5.7410   -1.6258    0.0000 H       1  UNL1        0.0257
     51 H           5.6646   -0.7524    0.0000 H       1  UNL1        0.0257
     52 H           3.9631   -1.8945    0.0000 H       1  UNL1        0.2102
     53 H           6.5764    2.1040    0.0000 H       1  UNL1        0.2098
     54 H           4.7880    3.5962    0.0000 H       1  UNL1        0.0287
     55 H           4.3894    2.9059    0.0000 H       1  UNL1        0.0287
     56 H           6.9715    2.9210    0.0000 H       1  UNL1        0.0604
     57 H           6.6474    2.1929    0.0000 H       1  UNL1        0.0604
     58 H           8.7630    1.3270    0.0000 H       1  UNL1        0.0618
     59 H           6.0781    2.9309    0.0000 H       1  UNL1        0.0557
     60 H           6.4766    3.6212    0.0000 H       1  UNL1        0.0557
     61 H           2.0000    2.6335    0.0000 H       1  UNL1        0.0278
     62 H           1.3800    2.0135    0.0000 H       1  UNL1        0.0278
     63 H           2.0000    1.3935    0.0000 H       1  UNL1        0.0278
     64 H           3.5369    3.3235    0.0000 H       1  UNL1        0.1078
     65 H           7.8643   -0.3964    0.0000 H       1  UNL1        0.0618
     66 H           7.9875    3.5682    0.0000 H       1  UNL1        0.2098
     67 H           6.4030    4.8235    0.0000 H       1  UNL1        0.2094
     68 H           9.7811   -0.0743    0.0000 H       1  UNL1        0.0620
     69 H          10.9160   -1.8832    0.0000 H       1  UNL1        0.0316
     70 H          10.4475   -1.2384    0.0000 H       1  UNL1        0.0316
     71 H           8.0086   -1.7688    0.0000 H       1  UNL1        0.0537
     72 H           8.6398   -2.6376    0.0000 H       1  UNL1        0.0537
     73 H           9.7836   -2.7912    0.0000 H       1  UNL1        0.0311
     74 H          10.2521   -3.4361    0.0000 H       1  UNL1        0.0311
     75 H          11.8172   -2.8768    0.0000 H       1  UNL1        0.0572
     76 H          12.0815   -5.2089    0.0000 H       1  UNL1        0.0274
     77 H          12.9001   -4.8947    0.0000 H       1  UNL1        0.0274
     78 H          12.5859   -4.0761    0.0000 H       1  UNL1        0.0274
     79 H          10.2467   -4.3220    0.0000 H       1  UNL1        0.0274
     80 H          10.1095   -5.1880    0.0000 H       1  UNL1        0.0274
     81 H          10.9756   -5.3251    0.0000 H       1  UNL1        0.0274
@<TRIPOS>BOND
     1     7     1    1
     2     1    52    1
     3     9     2    1
     4     2    53    1
     5     3    21    1
     6     3    66    1
     7     4    23    1
     8     4    67    1
     9     5    25    2
    10     6     7    1
    11     6     8    1
    12     6     9    1
    13     6    10    1
    14     7    13    1
    15     7    17    1
    16     8    14    1
    17     8    16    1
    18     8    36    1
    19     9    11    1
    20     9    37    1
    21    10    12    1
    22    10    38    1
    23    10    39    1
    24    11    12    1
    25    11    18    1
    26    11    40    1
    27    12    41    1
    28    12    42    1
    29    13    15    1
    30    13    43    1
    31    13    44    1
    32    14    15    1
    33    14    20    2
    34    15    45    1
    35    15    46    1
    36    16    19    1
    37    16    47    1
    38    16    48    1
    39    17    49    1
    40    17    50    1
    41    17    51    1
    42    18    21    1
    43    18    22    2
    44    19    23    1
    45    19    54    1
    46    19    55    1
    47    20    24    1
    48    20    25    1
    49    21    56    1
    50    21    57    1
    51    22    26    1
    52    22    58    1
    53    23    59    1
    54    23    60    1
    55    24    61    1
    56    24    62    1
    57    24    63    1
    58    25    64    1
    59    26    27    2
    60    26    65    1
    61    27    28    1
    62    27    68    1
    63    28    29    1
    64    28    30    2
    65    29    31    1
    66    29    69    1
    67    29    70    1
    68    30    71    1
    69    30    72    1
    70    31    32    1
    71    31    73    1
    72    31    74    1
    73    32    33    2
    74    32    75    1
    75    33    34    1
    76    33    35    1
    77    34    76    1
    78    34    77    1
    79    34    78    1
    80    35    79    1
    81    35    80    1
    82    35    81    1
