@<TRIPOS>MOLECULE
IMPHY000865
 54 56 0 0 0
SMALL
GASTEIGER

@<TRIPOS>ATOM
      1 O           5.1350    3.2500    0.0000 O.3     1  UNL1       -0.3396
      2 O           5.1350    0.2500    0.0000 O.3     1  UNL1       -0.4512
      3 O           6.8671    1.2500    0.0000 O.3     1  UNL1       -0.4489
      4 O           3.4030    1.2500    0.0000 O.3     1  UNL1       -0.3853
      5 O           6.8671    3.2500    0.0000 O.3     1  UNL1       -0.3641
      6 O           3.4030    4.2500    0.0000 O.3     1  UNL1       -0.3924
      7 O           3.4030    0.2500    0.0000 O.2     1  UNL1       -0.2449
      8 O           7.7331    2.7500    0.0000 O.2     1  UNL1       -0.2449
      9 O           6.0010   -3.2500    0.0000 O.3     1  UNL1       -0.5032
     10 O           2.5369   -3.2500    0.0000 O.3     1  UNL1       -0.5032
     11 O          11.1972    1.7500    0.0000 O.3     1  UNL1       -0.5032
     12 O           9.4651   -1.2500    0.0000 O.3     1  UNL1       -0.5032
     13 O           4.2690   -4.2500    0.0000 O.3     1  UNL1       -0.5009
     14 O          11.1972   -0.2500    0.0000 O.3     1  UNL1       -0.5009
     15 C           5.1350    1.2500    0.0000 C.3     1  UNL1        0.1730
     16 C           4.2690    1.7500    0.0000 C.3     1  UNL1        0.1240
     17 C           6.0010    1.7500    0.0000 C.3     1  UNL1        0.1927
     18 C           4.2690    2.7500    0.0000 C.3     1  UNL1        0.1141
     19 C           6.0010    2.7500    0.0000 C.3     1  UNL1        0.1979
     20 C           3.4030    3.2500    0.0000 C.3     1  UNL1        0.0731
     21 C           4.2690   -0.2500    0.0000 C.2     1  UNL1        0.3399
     22 C           7.7331    1.7500    0.0000 C.2     1  UNL1        0.3400
     23 C           4.2690   -1.2500    0.0000 C.ar    1  UNL1        0.0661
     24 C           8.5991    1.2500    0.0000 C.ar    1  UNL1        0.0661
     25 C           3.4030   -1.7500    0.0000 C.ar    1  UNL1       -0.0023
     26 C           5.1350   -1.7500    0.0000 C.ar    1  UNL1       -0.0023
     27 C           8.5991    0.2500    0.0000 C.ar    1  UNL1       -0.0023
     28 C           9.4651    1.7500    0.0000 C.ar    1  UNL1       -0.0023
     29 C           5.1350   -2.7500    0.0000 C.ar    1  UNL1        0.1628
     30 C           3.4030   -2.7500    0.0000 C.ar    1  UNL1        0.1628
     31 C          10.3312    1.2500    0.0000 C.ar    1  UNL1        0.1628
     32 C           9.4651   -0.2500    0.0000 C.ar    1  UNL1        0.1628
     33 C           4.2690   -3.2500    0.0000 C.ar    1  UNL1        0.2006
     34 C          10.3312    0.2500    0.0000 C.ar    1  UNL1        0.2006
     35 H           5.6720    0.9400    0.0000 H       1  UNL1        0.0801
     36 H           4.2690    1.1300    0.0000 H       1  UNL1        0.0658
     37 H           6.5380    2.0600    0.0000 H       1  UNL1        0.0824
     38 H           4.2690    3.3700    0.0000 H       1  UNL1        0.0647
     39 H           6.0010    3.3700    0.0000 H       1  UNL1        0.0948
     40 H           2.7924    3.3577    0.0000 H       1  UNL1        0.0584
     41 H           3.1909    2.6674    0.0000 H       1  UNL1        0.0584
     42 H           2.8660    1.5600    0.0000 H       1  UNL1        0.2101
     43 H           6.8671    3.8700    0.0000 H       1  UNL1        0.2126
     44 H           2.8660    4.5600    0.0000 H       1  UNL1        0.2095
     45 H           2.8660   -1.4400    0.0000 H       1  UNL1        0.0663
     46 H           5.6720   -1.4400    0.0000 H       1  UNL1        0.0663
     47 H           8.0622   -0.0600    0.0000 H       1  UNL1        0.0663
     48 H           9.4651    2.3700    0.0000 H       1  UNL1        0.0663
     49 H           6.0010   -3.8700    0.0000 H       1  UNL1        0.2923
     50 H           2.0000   -2.9400    0.0000 H       1  UNL1        0.2923
     51 H          11.1972    2.3700    0.0000 H       1  UNL1        0.2923
     52 H          10.0021   -1.5600    0.0000 H       1  UNL1        0.2923
     53 H           3.7320   -4.5600    0.0000 H       1  UNL1        0.2924
     54 H          11.7341    0.0600    0.0000 H       1  UNL1        0.2924
@<TRIPOS>BOND
     1     1    18    1
     2     1    19    1
     3    15     2    1
     4     2    21    1
     5    17     3    1
     6     3    22    1
     7    16     4    1
     8     4    42    1
     9    19     5    1
    10     5    43    1
    11     6    20    1
    12     6    44    1
    13     7    21    2
    14     8    22    2
    15     9    29    1
    16     9    49    1
    17    10    30    1
    18    10    50    1
    19    11    31    1
    20    11    51    1
    21    12    32    1
    22    12    52    1
    23    13    33    1
    24    13    53    1
    25    14    34    1
    26    14    54    1
    27    15    16    1
    28    15    17    1
    29    15    35    1
    30    16    18    1
    31    16    36    1
    32    17    19    1
    33    17    37    1
    34    18    20    1
    35    18    38    1
    36    19    39    1
    37    20    40    1
    38    20    41    1
    39    21    23    1
    40    22    24    1
    41    23    25   ar
    42    23    26   ar
    43    24    27   ar
    44    24    28   ar
    45    25    30   ar
    46    25    45    1
    47    26    29   ar
    48    26    46    1
    49    27    32   ar
    50    27    47    1
    51    28    31   ar
    52    28    48    1
    53    29    33   ar
    54    30    33   ar
    55    31    34   ar
    56    32    34   ar
