@<TRIPOS>MOLECULE
IMPHY001210
 83 88 0 0 0
SMALL
GASTEIGER

@<TRIPOS>ATOM
      1 O           8.1006   -4.5630    0.0000 O.2     1  UNL1       -0.2907
      2 O          10.4256   -3.6496    0.0000 O.3     1  UNL1       -0.4672
      3 O          10.6312   -1.9298    0.0000 O.2     1  UNL1       -0.2497
      4 O          13.1449   -0.9700    0.0000 O.3     1  UNL1       -0.4679
      5 O          12.1022   -2.3530    0.0000 O.2     1  UNL1       -0.2509
      6 N           8.1923   -0.0868    0.0000 N.2     1  UNL1       -0.2555
      7 N           6.7126   -1.4362    0.0000 N.2     1  UNL1       -0.2464
      8 N           6.6795    1.2628    0.0000 N.ar    1  UNL1       -0.3543
      9 N           5.2310   -0.0868    0.0000 N.ar    1  UNL1       -0.3545
     10 C           9.7067   -0.5470    0.0000 C.3     1  UNL1        0.0102
     11 C           9.7067    0.4395    0.0000 C.3     1  UNL1        0.0068
     12 C           8.7846   -0.8110    0.0000 C.2     1  UNL1        0.0517
     13 C           8.4894   -1.7647    0.0000 C.2     1  UNL1        0.0214
     14 C          10.5052   -1.1490    0.0000 C.3     1  UNL1       -0.0341
     15 C           8.7516    0.7034    0.0000 C.2     1  UNL1        0.0470
     16 C           9.0390   -2.6116    0.0000 C.3     1  UNL1        0.1476
     17 C           7.5028   -2.0286    0.0000 C.2     1  UNL1        0.0814
     18 C          10.5025    1.0451    0.0000 C.3     1  UNL1       -0.0564
     19 C           7.2058   -2.9821    0.0000 C.2     1  UNL1        0.0492
     20 C           8.0299   -3.5656    0.0000 C.2     1  UNL1        0.1837
     21 C          11.4258   -0.7585    0.0000 C.3     1  UNL1        0.0455
     22 C           8.4563    1.6242    0.0000 C.2     1  UNL1       -0.0165
     23 C           6.2191   -2.9821    0.0000 C.2     1  UNL1       -0.0125
     24 C           5.9222   -2.0616    0.0000 C.2     1  UNL1        0.0701
     25 C          10.0319   -2.7304    0.0000 C.2     1  UNL1        0.3221
     26 C           7.5028    1.9211    0.0000 C.ar    1  UNL1        0.0449
     27 C          12.2243   -1.3605    0.0000 C.2     1  UNL1        0.3068
     28 C           5.6304   -3.7905    0.0000 C.3     1  UNL1       -0.0370
     29 C           4.9686   -1.7647    0.0000 C.2     1  UNL1       -0.0124
     30 C           7.1728    2.8416    0.0000 C.ar    1  UNL1       -0.0180
     31 C           4.6717   -0.8440    0.0000 C.ar    1  UNL1        0.0452
     32 C           5.8892    1.8881    0.0000 C.ar    1  UNL1        0.0491
     33 C           6.1862    2.8416    0.0000 C.ar    1  UNL1        0.0027
     34 C           3.7182   -0.5800    0.0000 C.ar    1  UNL1       -0.0194
     35 C           4.6717    0.6705    0.0000 C.ar    1  UNL1        0.0448
     36 C           3.7182    0.4066    0.0000 C.ar    1  UNL1       -0.0220
     37 C           4.9356    1.6242    0.0000 C.2     1  UNL1       -0.0141
     38 C           7.7483    3.6594    0.0000 C.3     1  UNL1       -0.0371
     39 C           2.9223   -1.1855    0.0000 C.3     1  UNL1       -0.0283
     40 C           5.5935    3.6470    0.0000 C.2     1  UNL1       -0.0594
     41 C           2.9223    1.0121    0.0000 C.3     1  UNL1       -0.0374
     42 C          11.4185   -3.7683    0.0000 C.3     1  UNL1        0.0817
     43 C           2.0000   -0.7990    0.0000 C.3     1  UNL1       -0.0612
     44 C          13.9434   -1.5720    0.0000 C.3     1  UNL1        0.0817
     45 C           5.9946    4.5630    0.0000 C.2     1  UNL1       -0.0981
     46 H          10.2616   -0.2704    0.0000 H       1  UNL1        0.0370
     47 H           9.5894    1.0483    0.0000 H       1  UNL1        0.0368
     48 H          10.0517   -1.5717    0.0000 H       1  UNL1        0.0277
     49 H          10.8428   -1.6691    0.0000 H       1  UNL1        0.0277
     50 H           9.3668   -2.0854    0.0000 H       1  UNL1        0.0546
     51 H          10.8780    0.5517    0.0000 H       1  UNL1        0.0236
     52 H          10.9959    1.4206    0.0000 H       1  UNL1        0.0236
     53 H          10.1270    1.5385    0.0000 H       1  UNL1        0.0236
     54 H          11.8794   -0.3358    0.0000 H       1  UNL1        0.0378
     55 H          11.0883   -0.2384    0.0000 H       1  UNL1        0.0378
     56 H           8.8928    2.0644    0.0000 H       1  UNL1        0.0656
     57 H           5.1292   -3.4255    0.0000 H       1  UNL1        0.0278
     58 H           5.2654   -4.2917    0.0000 H       1  UNL1        0.0278
     59 H           6.1316   -4.1555    0.0000 H       1  UNL1        0.0278
     60 H           4.5324   -2.2053    0.0000 H       1  UNL1        0.0659
     61 H           6.6811    0.6428    0.0000 H       1  UNL1        0.1659
     62 H           5.8470   -0.1564    0.0000 H       1  UNL1        0.1659
     63 H           4.4972    2.0625    0.0000 H       1  UNL1        0.0659
     64 H           8.2553    3.3026    0.0000 H       1  UNL1        0.0278
     65 H           8.1051    4.1665    0.0000 H       1  UNL1        0.0278
     66 H           7.2412    4.0162    0.0000 H       1  UNL1        0.0278
     67 H           2.5870   -1.7070    0.0000 H       1  UNL1        0.0311
     68 H           3.3777   -1.6062    0.0000 H       1  UNL1        0.0311
     69 H           4.9773    3.5785    0.0000 H       1  UNL1        0.0618
     70 H           3.2978    1.5055    0.0000 H       1  UNL1        0.0278
     71 H           2.4289    1.3875    0.0000 H       1  UNL1        0.0278
     72 H           2.5469    0.5187    0.0000 H       1  UNL1        0.0278
     73 H          11.3449   -4.3839    0.0000 H       1  UNL1        0.0661
     74 H          12.0341   -3.8419    0.0000 H       1  UNL1        0.0661
     75 H          11.4921   -3.1527    0.0000 H       1  UNL1        0.0661
     76 H           2.2396   -0.2271    0.0000 H       1  UNL1        0.0233
     77 H           1.4282   -0.5593    0.0000 H       1  UNL1        0.0233
     78 H           1.7604   -1.3708    0.0000 H       1  UNL1        0.0233
     79 H          13.5702   -2.0670    0.0000 H       1  UNL1        0.0661
     80 H          14.4385   -1.9452    0.0000 H       1  UNL1        0.0661
     81 H          14.3167   -1.0769    0.0000 H       1  UNL1        0.0661
     82 H           6.6108    4.6316    0.0000 H       1  UNL1        0.0535
     83 H           5.6271    5.0624    0.0000 H       1  UNL1        0.0535
@<TRIPOS>BOND
     1     1    20    2
     2     2    25    1
     3     2    42    1
     4     3    25    2
     5     4    27    1
     6     4    44    1
     7     5    27    2
     8     6    12    2
     9     6    15    1
    10     7    17    1
    11     7    24    2
    12     8    26   ar
    13     8    32   ar
    14     8    61    1
    15     9    31   ar
    16     9    35   ar
    17     9    62    1
    18    10    11    1
    19    10    12    1
    20    10    14    1
    21    10    46    1
    22    11    15    1
    23    11    18    1
    24    11    47    1
    25    12    13    1
    26    13    16    1
    27    13    17    2
    28    14    21    1
    29    14    48    1
    30    14    49    1
    31    15    22    2
    32    16    20    1
    33    16    25    1
    34    16    50    1
    35    17    19    1
    36    18    51    1
    37    18    52    1
    38    18    53    1
    39    19    20    1
    40    19    23    2
    41    21    27    1
    42    21    54    1
    43    21    55    1
    44    22    26    1
    45    22    56    1
    46    23    24    1
    47    23    28    1
    48    24    29    1
    49    26    30   ar
    50    28    57    1
    51    28    58    1
    52    28    59    1
    53    29    31    2
    54    29    60    1
    55    30    33   ar
    56    30    38    1
    57    31    34   ar
    58    32    33   ar
    59    32    37    1
    60    33    40    1
    61    34    36   ar
    62    34    39    1
    63    35    36   ar
    64    35    37    2
    65    36    41    1
    66    37    63    1
    67    38    64    1
    68    38    65    1
    69    38    66    1
    70    39    43    1
    71    39    67    1
    72    39    68    1
    73    40    45    2
    74    40    69    1
    75    41    70    1
    76    41    71    1
    77    41    72    1
    78    42    73    1
    79    42    74    1
    80    42    75    1
    81    43    76    1
    82    43    77    1
    83    43    78    1
    84    44    79    1
    85    44    80    1
    86    44    81    1
    87    45    82    1
    88    45    83    1
