@<TRIPOS>MOLECULE
IMPHY015456
 49 49 0 0 0
SMALL
GASTEIGER

@<TRIPOS>ATOM
      1 O          10.7942    2.1900    0.0000 O.2     1  UNL1       -0.2963
      2 C           3.0000   -1.3100    0.0000 C.3     1  UNL1       -0.0099
      3 C           3.0000   -2.3100    0.0000 C.3     1  UNL1       -0.0436
      4 C           3.8660   -2.8100    0.0000 C.3     1  UNL1       -0.0486
      5 C           3.8660   -0.8100    0.0000 C.2     1  UNL1       -0.0427
      6 C           4.7320   -2.3100    0.0000 C.3     1  UNL1       -0.0314
      7 C           4.7320   -1.3100    0.0000 C.2     1  UNL1       -0.0689
      8 C           2.0000   -1.3100    0.0000 C.3     1  UNL1       -0.0558
      9 C           2.5000   -0.4440    0.0000 C.3     1  UNL1       -0.0558
     10 C           3.8660    0.1900    0.0000 C.2     1  UNL1       -0.0579
     11 C           5.5981   -0.8100    0.0000 C.3     1  UNL1       -0.0432
     12 C           4.7320    0.6900    0.0000 C.2     1  UNL1       -0.0586
     13 C           4.7320    1.6900    0.0000 C.2     1  UNL1       -0.0504
     14 C           3.8660    2.1900    0.0000 C.3     1  UNL1       -0.0397
     15 C           5.5981    2.1900    0.0000 C.2     1  UNL1       -0.0588
     16 C           6.4641    1.6900    0.0000 C.2     1  UNL1       -0.0613
     17 C           7.3301    2.1900    0.0000 C.2     1  UNL1       -0.0587
     18 C           8.1962    1.6900    0.0000 C.2     1  UNL1       -0.0474
     19 C           8.1962    0.6900    0.0000 C.3     1  UNL1       -0.0396
     20 C           9.0622    2.1900    0.0000 C.2     1  UNL1       -0.0195
     21 C           9.9282    1.6900    0.0000 C.2     1  UNL1        0.1433
     22 H           2.3894   -2.2023    0.0000 H       1  UNL1        0.0274
     23 H           2.7880   -2.8926    0.0000 H       1  UNL1        0.0274
     24 H           3.4675   -3.2850    0.0000 H       1  UNL1        0.0269
     25 H           4.2646   -3.2850    0.0000 H       1  UNL1        0.0269
     26 H           4.9441   -2.8926    0.0000 H       1  UNL1        0.0310
     27 H           5.3426   -2.2023    0.0000 H       1  UNL1        0.0310
     28 H           2.0000   -0.6900    0.0000 H       1  UNL1        0.0238
     29 H           1.3800   -1.3100    0.0000 H       1  UNL1        0.0238
     30 H           2.0000   -1.9300    0.0000 H       1  UNL1        0.0238
     31 H           3.0369   -0.1340    0.0000 H       1  UNL1        0.0238
     32 H           2.1900    0.0930    0.0000 H       1  UNL1        0.0238
     33 H           1.9631   -0.7540    0.0000 H       1  UNL1        0.0238
     34 H           3.3291    0.5000    0.0000 H       1  UNL1        0.0621
     35 H           5.9081   -1.3469    0.0000 H       1  UNL1        0.0275
     36 H           6.1350   -0.5000    0.0000 H       1  UNL1        0.0275
     37 H           5.2881   -0.2731    0.0000 H       1  UNL1        0.0275
     38 H           5.2690    0.3800    0.0000 H       1  UNL1        0.0620
     39 H           4.1760    2.7269    0.0000 H       1  UNL1        0.0278
     40 H           3.3291    2.5000    0.0000 H       1  UNL1        0.0278
     41 H           3.5560    1.6531    0.0000 H       1  UNL1        0.0278
     42 H           5.5981    2.8100    0.0000 H       1  UNL1        0.0620
     43 H           6.4641    1.0700    0.0000 H       1  UNL1        0.0618
     44 H           7.3301    2.8100    0.0000 H       1  UNL1        0.0620
     45 H           7.5762    0.6900    0.0000 H       1  UNL1        0.0278
     46 H           8.1962    0.0700    0.0000 H       1  UNL1        0.0278
     47 H           8.8162    0.6900    0.0000 H       1  UNL1        0.0278
     48 H           9.0622    2.8100    0.0000 H       1  UNL1        0.0652
     49 H           9.9282    1.0700    0.0000 H       1  UNL1        0.1075
@<TRIPOS>BOND
     1     1    21    2
     2     2     3    1
     3     2     5    1
     4     2     8    1
     5     2     9    1
     6     3     4    1
     7     3    22    1
     8     3    23    1
     9     4     6    1
    10     4    24    1
    11     4    25    1
    12     5     7    2
    13     5    10    1
    14     6     7    1
    15     6    26    1
    16     6    27    1
    17     7    11    1
    18     8    28    1
    19     8    29    1
    20     8    30    1
    21     9    31    1
    22     9    32    1
    23     9    33    1
    24    10    12    2
    25    10    34    1
    26    11    35    1
    27    11    36    1
    28    11    37    1
    29    12    13    1
    30    12    38    1
    31    13    14    1
    32    13    15    2
    33    14    39    1
    34    14    40    1
    35    14    41    1
    36    15    16    1
    37    15    42    1
    38    16    17    2
    39    16    43    1
    40    17    18    1
    41    17    44    1
    42    18    19    1
    43    18    20    2
    44    19    45    1
    45    19    46    1
    46    19    47    1
    47    20    21    1
    48    20    48    1
    49    21    49    1
