@<TRIPOS>MOLECULE
IMPHY007248
 30 32 0 0 0
SMALL
GASTEIGER

@<TRIPOS>ATOM
      1 O           6.4144    1.3765    0.0000 O.3     1  UNL1       -0.5060
      2 O           4.6660    1.3419    0.0000 O.2     1  UNL1       -0.2864
      3 O           2.9176    1.3765    0.0000 O.3     1  UNL1       -0.5060
      4 C           4.6660   -1.6581    0.0000 C.3     1  UNL1       -0.0008
      5 C           5.5321   -1.1581    0.0000 C.ar    1  UNL1       -0.0285
      6 C           3.8000   -1.1581    0.0000 C.ar    1  UNL1       -0.0287
      7 C           5.5321   -0.1581    0.0000 C.ar    1  UNL1        0.0672
      8 C           3.8000   -0.1581    0.0000 C.ar    1  UNL1        0.0672
      9 C           4.6660    0.3419    0.0000 C.2     1  UNL1        0.2007
     10 C           6.4260   -1.6927    0.0000 C.ar    1  UNL1       -0.0544
     11 C           6.4260    0.3766    0.0000 C.ar    1  UNL1        0.1282
     12 C           7.3321   -1.1789    0.0000 C.ar    1  UNL1       -0.0467
     13 C           2.9061   -1.6927    0.0000 C.ar    1  UNL1       -0.0574
     14 C           2.9061    0.3766    0.0000 C.ar    1  UNL1        0.1279
     15 C           7.3321   -0.1372    0.0000 C.ar    1  UNL1       -0.0165
     16 C           2.0000   -1.1789    0.0000 C.ar    1  UNL1       -0.0580
     17 C           2.0000   -0.1372    0.0000 C.ar    1  UNL1       -0.0194
     18 C           8.1962   -1.6822    0.0000 C.3     1  UNL1       -0.0396
     19 H           4.2675   -2.1330    0.0000 H       1  UNL1        0.0362
     20 H           5.0646   -2.1330    0.0000 H       1  UNL1        0.0362
     21 H           6.4188   -2.3127    0.0000 H       1  UNL1        0.0623
     22 H           2.9132   -2.3127    0.0000 H       1  UNL1        0.0621
     23 H           7.8678    0.1748    0.0000 H       1  UNL1        0.0657
     24 H           1.4643   -1.4909    0.0000 H       1  UNL1        0.0619
     25 H           1.4643    0.1748    0.0000 H       1  UNL1        0.0654
     26 H           7.8841   -2.2180    0.0000 H       1  UNL1        0.0278
     27 H           8.7319   -1.9943    0.0000 H       1  UNL1        0.0278
     28 H           8.5082   -1.1465    0.0000 H       1  UNL1        0.0278
     29 H           6.9478    1.6927    0.0000 H       1  UNL1        0.2922
     30 H           2.3843    1.6927    0.0000 H       1  UNL1        0.2922
@<TRIPOS>BOND
     1     1    11    1
     2     1    29    1
     3     2     9    2
     4     3    14    1
     5     3    30    1
     6     4     5    1
     7     4     6    1
     8     4    19    1
     9     4    20    1
    10     5     7   ar
    11     5    10   ar
    12     6     8   ar
    13     6    13   ar
    14     7     9    1
    15     7    11   ar
    16     8     9    1
    17     8    14   ar
    18    10    12   ar
    19    10    21    1
    20    11    15   ar
    21    12    15   ar
    22    12    18    1
    23    13    16   ar
    24    13    22    1
    25    14    17   ar
    26    15    23    1
    27    16    17   ar
    28    16    24    1
    29    17    25    1
    30    18    26    1
    31    18    27    1
    32    18    28    1
