@<TRIPOS>MOLECULE
IMPHY015843
 15 14 0 0 0
SMALL
GASTEIGER

@<TRIPOS>ATOM
      1 S           4.5981    0.2500    0.0000 S.3     1  UNL1       -0.1641
      2 C           2.8660    0.2500    0.0000 C.3     1  UNL1       -0.0469
      3 C           3.7320   -0.2500    0.0000 C.3     1  UNL1       -0.0068
      4 C           2.0000   -0.2500    0.0000 C.3     1  UNL1       -0.0645
      5 C           5.4641   -0.2500    0.0000 C.3     1  UNL1       -0.0181
      6 H           3.2646    0.7249    0.0000 H       1  UNL1        0.0270
      7 H           2.4675    0.7249    0.0000 H       1  UNL1        0.0270
      8 H           3.3335   -0.7249    0.0000 H       1  UNL1        0.0376
      9 H           4.1306   -0.7249    0.0000 H       1  UNL1        0.0376
     10 H           1.6900    0.2869    0.0000 H       1  UNL1        0.0230
     11 H           1.4631   -0.5600    0.0000 H       1  UNL1        0.0230
     12 H           2.3100   -0.7869    0.0000 H       1  UNL1        0.0230
     13 H           5.1541   -0.7869    0.0000 H       1  UNL1        0.0340
     14 H           6.0010   -0.5600    0.0000 H       1  UNL1        0.0340
     15 H           5.7741    0.2869    0.0000 H       1  UNL1        0.0340
@<TRIPOS>BOND
     1     1     3    1
     2     1     5    1
     3     2     3    1
     4     2     4    1
     5     2     6    1
     6     2     7    1
     7     3     8    1
     8     3     9    1
     9     4    10    1
    10     4    11    1
    11     4    12    1
    12     5    13    1
    13     5    14    1
    14     5    15    1
