@<TRIPOS>MOLECULE
IMPHY002849
 96 96 0 0 0
SMALL
GASTEIGER

@<TRIPOS>ATOM
      1 O           6.3301   -5.8450    0.0000 O.3     1  UNL1       -0.4616
      2 O           4.5981   -5.8450    0.0000 O.2     1  UNL1       -0.2456
      3 O           2.8660  -10.8450    0.0000 O.3     1  UNL1       -0.4914
      4 O           4.5981  -11.8450    0.0000 O.3     1  UNL1       -0.5033
      5 C          11.5263    3.1550    0.0000 C.3     1  UNL1       -0.0531
      6 C          11.5263    4.1550    0.0000 C.3     1  UNL1       -0.0531
      7 C          10.6603    2.6550    0.0000 C.3     1  UNL1       -0.0531
      8 C          12.3923    4.6550    0.0000 C.3     1  UNL1       -0.0531
      9 C          10.6603    1.6550    0.0000 C.3     1  UNL1       -0.0531
     10 C          12.3923    5.6550    0.0000 C.3     1  UNL1       -0.0531
     11 C           9.7942    1.1550    0.0000 C.3     1  UNL1       -0.0531
     12 C          13.2583    6.1550    0.0000 C.3     1  UNL1       -0.0531
     13 C           9.7942    0.1550    0.0000 C.3     1  UNL1       -0.0531
     14 C          13.2583    7.1550    0.0000 C.3     1  UNL1       -0.0531
     15 C           8.9282   -0.3450    0.0000 C.3     1  UNL1       -0.0531
     16 C          14.1244    7.6550    0.0000 C.3     1  UNL1       -0.0531
     17 C           8.9282   -1.3450    0.0000 C.3     1  UNL1       -0.0531
     18 C          14.1244    8.6550    0.0000 C.3     1  UNL1       -0.0531
     19 C           8.0622   -1.8450    0.0000 C.3     1  UNL1       -0.0531
     20 C          14.9904    9.1550    0.0000 C.3     1  UNL1       -0.0531
     21 C           8.0622   -2.8450    0.0000 C.3     1  UNL1       -0.0530
     22 C          14.9904   10.1550    0.0000 C.3     1  UNL1       -0.0531
     23 C           7.1962   -3.3450    0.0000 C.3     1  UNL1       -0.0500
     24 C          15.8564   10.6550    0.0000 C.3     1  UNL1       -0.0533
     25 C           7.1962   -4.3450    0.0000 C.3     1  UNL1       -0.0185
     26 C          15.8564   11.6550    0.0000 C.3     1  UNL1       -0.0559
     27 C           6.3301   -4.8450    0.0000 C.3     1  UNL1        0.0928
     28 C          16.7224   12.1550    0.0000 C.3     1  UNL1       -0.0653
     29 C           5.4641   -6.3450    0.0000 C.2     1  UNL1        0.3319
     30 C           5.4641   -7.3450    0.0000 C.2     1  UNL1        0.0231
     31 C           4.5981   -7.8450    0.0000 C.2     1  UNL1       -0.0477
     32 C           4.5981   -8.8450    0.0000 C.ar    1  UNL1       -0.0211
     33 C           3.7320   -9.3450    0.0000 C.ar    1  UNL1       -0.0092
     34 C           5.4641   -9.3450    0.0000 C.ar    1  UNL1       -0.0509
     35 C           3.7320  -10.3450    0.0000 C.ar    1  UNL1        0.1618
     36 C           5.4641  -10.3450    0.0000 C.ar    1  UNL1       -0.0160
     37 C           4.5981  -10.8450    0.0000 C.ar    1  UNL1        0.1585
     38 C           2.0000  -10.3450    0.0000 C.3     1  UNL1        0.0790
     39 H          11.7383    2.5724    0.0000 H       1  UNL1        0.0265
     40 H          12.1369    3.2627    0.0000 H       1  UNL1        0.0265
     41 H          11.3142    4.7376    0.0000 H       1  UNL1        0.0265
     42 H          10.9157    4.0473    0.0000 H       1  UNL1        0.0265
     43 H          10.4482    3.2376    0.0000 H       1  UNL1        0.0265
     44 H          10.0497    2.5473    0.0000 H       1  UNL1        0.0265
     45 H          12.6044    4.0724    0.0000 H       1  UNL1        0.0265
     46 H          13.0029    4.7627    0.0000 H       1  UNL1        0.0265
     47 H          10.8723    1.0724    0.0000 H       1  UNL1        0.0265
     48 H          11.2708    1.7627    0.0000 H       1  UNL1        0.0265
     49 H          12.1803    6.2376    0.0000 H       1  UNL1        0.0265
     50 H          11.7817    5.5473    0.0000 H       1  UNL1        0.0265
     51 H           9.5822    1.7376    0.0000 H       1  UNL1        0.0265
     52 H           9.1836    1.0473    0.0000 H       1  UNL1        0.0265
     53 H          13.4704    5.5724    0.0000 H       1  UNL1        0.0265
     54 H          13.8689    6.2627    0.0000 H       1  UNL1        0.0265
     55 H          10.0063   -0.4276    0.0000 H       1  UNL1        0.0265
     56 H          10.4048    0.2627    0.0000 H       1  UNL1        0.0265
     57 H          13.0463    7.7376    0.0000 H       1  UNL1        0.0265
     58 H          12.6477    7.0473    0.0000 H       1  UNL1        0.0265
     59 H           8.7162    0.2376    0.0000 H       1  UNL1        0.0265
     60 H           8.3176   -0.4527    0.0000 H       1  UNL1        0.0265
     61 H          14.3364    7.0724    0.0000 H       1  UNL1        0.0265
     62 H          14.7349    7.7627    0.0000 H       1  UNL1        0.0265
     63 H           9.1403   -1.9276    0.0000 H       1  UNL1        0.0265
     64 H           9.5388   -1.2373    0.0000 H       1  UNL1        0.0265
     65 H          13.9123    9.2376    0.0000 H       1  UNL1        0.0265
     66 H          13.5138    8.5473    0.0000 H       1  UNL1        0.0265
     67 H           7.8501   -1.2624    0.0000 H       1  UNL1        0.0265
     68 H           7.4516   -1.9527    0.0000 H       1  UNL1        0.0265
     69 H          15.2024    8.5724    0.0000 H       1  UNL1        0.0265
     70 H          15.6010    9.2627    0.0000 H       1  UNL1        0.0265
     71 H           8.2742   -3.4276    0.0000 H       1  UNL1        0.0265
     72 H           8.6728   -2.7373    0.0000 H       1  UNL1        0.0265
     73 H          14.7783   10.7376    0.0000 H       1  UNL1        0.0265
     74 H          14.3798   10.0473    0.0000 H       1  UNL1        0.0265
     75 H           6.9841   -2.7624    0.0000 H       1  UNL1        0.0266
     76 H           6.5856   -3.4527    0.0000 H       1  UNL1        0.0266
     77 H          16.0685   10.0724    0.0000 H       1  UNL1        0.0265
     78 H          16.4670   10.7627    0.0000 H       1  UNL1        0.0265
     79 H           7.4082   -4.9276    0.0000 H       1  UNL1        0.0298
     80 H           7.8067   -4.2373    0.0000 H       1  UNL1        0.0298
     81 H          15.6444   12.2376    0.0000 H       1  UNL1        0.0263
     82 H          15.2458   11.5473    0.0000 H       1  UNL1        0.0263
     83 H           6.1181   -4.2624    0.0000 H       1  UNL1        0.0697
     84 H           5.7196   -4.9527    0.0000 H       1  UNL1        0.0697
     85 H          17.0324   11.6181    0.0000 H       1  UNL1        0.0230
     86 H          17.2594   12.4650    0.0000 H       1  UNL1        0.0230
     87 H          16.4124   12.6919    0.0000 H       1  UNL1        0.0230
     88 H           6.0010   -7.6550    0.0000 H       1  UNL1        0.0689
     89 H           4.0611   -7.5350    0.0000 H       1  UNL1        0.0626
     90 H           3.1951   -9.0350    0.0000 H       1  UNL1        0.0661
     91 H           6.0010   -9.0350    0.0000 H       1  UNL1        0.0625
     92 H           6.0010  -10.6550    0.0000 H       1  UNL1        0.0655
     93 H           5.1350  -12.1550    0.0000 H       1  UNL1        0.2923
     94 H           2.3100   -9.8081    0.0000 H       1  UNL1        0.0660
     95 H           1.4631  -10.0350    0.0000 H       1  UNL1        0.0660
     96 H           1.6900  -10.8819    0.0000 H       1  UNL1        0.0660
@<TRIPOS>BOND
     1     1    27    1
     2     1    29    1
     3     2    29    2
     4     3    35    1
     5     3    38    1
     6     4    37    1
     7     4    93    1
     8     5     6    1
     9     5     7    1
    10     5    39    1
    11     5    40    1
    12     6     8    1
    13     6    41    1
    14     6    42    1
    15     7     9    1
    16     7    43    1
    17     7    44    1
    18     8    10    1
    19     8    45    1
    20     8    46    1
    21     9    11    1
    22     9    47    1
    23     9    48    1
    24    10    12    1
    25    10    49    1
    26    10    50    1
    27    11    13    1
    28    11    51    1
    29    11    52    1
    30    12    14    1
    31    12    53    1
    32    12    54    1
    33    13    15    1
    34    13    55    1
    35    13    56    1
    36    14    16    1
    37    14    57    1
    38    14    58    1
    39    15    17    1
    40    15    59    1
    41    15    60    1
    42    16    18    1
    43    16    61    1
    44    16    62    1
    45    17    19    1
    46    17    63    1
    47    17    64    1
    48    18    20    1
    49    18    65    1
    50    18    66    1
    51    19    21    1
    52    19    67    1
    53    19    68    1
    54    20    22    1
    55    20    69    1
    56    20    70    1
    57    21    23    1
    58    21    71    1
    59    21    72    1
    60    22    24    1
    61    22    73    1
    62    22    74    1
    63    23    25    1
    64    23    75    1
    65    23    76    1
    66    24    26    1
    67    24    77    1
    68    24    78    1
    69    25    27    1
    70    25    79    1
    71    25    80    1
    72    26    28    1
    73    26    81    1
    74    26    82    1
    75    27    83    1
    76    27    84    1
    77    28    85    1
    78    28    86    1
    79    28    87    1
    80    29    30    1
    81    30    31    2
    82    30    88    1
    83    31    32    1
    84    31    89    1
    85    32    33   ar
    86    32    34   ar
    87    33    35   ar
    88    33    90    1
    89    34    36   ar
    90    34    91    1
    91    35    37   ar
    92    36    37   ar
    93    36    92    1
    94    38    94    1
    95    38    95    1
    96    38    96    1
