@<TRIPOS>MOLECULE
IMPHY016203
 55 54 0 0 0
SMALL
GASTEIGER

@<TRIPOS>ATOM
      1 O           2.8660    0.4400    0.0000 O.3     1  UNL1       -0.4679
      2 O           3.7320   -1.0600    0.0000 O.2     1  UNL1       -0.2509
      3 C           8.0622    0.4400    0.0000 C.3     1  UNL1       -0.0531
      4 C           8.9282   -0.0600    0.0000 C.3     1  UNL1       -0.0530
      5 C           7.1962   -0.0600    0.0000 C.3     1  UNL1       -0.0530
      6 C           9.7942    0.4400    0.0000 C.3     1  UNL1       -0.0528
      7 C           6.3301    0.4400    0.0000 C.3     1  UNL1       -0.0526
      8 C          10.6603   -0.0600    0.0000 C.3     1  UNL1       -0.0496
      9 C           5.4641   -0.0600    0.0000 C.3     1  UNL1       -0.0430
     10 C          11.5263    0.4400    0.0000 C.3     1  UNL1       -0.0348
     11 C           4.5981    0.4400    0.0000 C.3     1  UNL1        0.0449
     12 C          12.3923   -0.0600    0.0000 C.2     1  UNL1       -0.0876
     13 C           3.7320   -0.0600    0.0000 C.2     1  UNL1        0.3068
     14 C          13.2583    0.4400    0.0000 C.2     1  UNL1       -0.0842
     15 C          14.1244   -0.0600    0.0000 C.3     1  UNL1       -0.0165
     16 C          14.9904    0.4400    0.0000 C.2     1  UNL1       -0.0842
     17 C          16.7224    0.4400    0.0000 C.3     1  UNL1       -0.0350
     18 C          15.8564   -0.0600    0.0000 C.2     1  UNL1       -0.0876
     19 C          17.5885   -0.0600    0.0000 C.3     1  UNL1       -0.0525
     20 C           2.0000   -0.0600    0.0000 C.3     1  UNL1        0.0817
     21 C          18.4545    0.4400    0.0000 C.3     1  UNL1       -0.0650
     22 H           8.4607    0.9149    0.0000 H       1  UNL1        0.0265
     23 H           7.6636    0.9149    0.0000 H       1  UNL1        0.0265
     24 H           8.5297   -0.5349    0.0000 H       1  UNL1        0.0265
     25 H           9.3267   -0.5349    0.0000 H       1  UNL1        0.0265
     26 H           6.7976   -0.5349    0.0000 H       1  UNL1        0.0265
     27 H           7.5947   -0.5349    0.0000 H       1  UNL1        0.0265
     28 H          10.1928    0.9149    0.0000 H       1  UNL1        0.0265
     29 H           9.3957    0.9149    0.0000 H       1  UNL1        0.0265
     30 H           6.7287    0.9149    0.0000 H       1  UNL1        0.0265
     31 H           5.9316    0.9149    0.0000 H       1  UNL1        0.0265
     32 H          10.2617   -0.5349    0.0000 H       1  UNL1        0.0268
     33 H          11.0588   -0.5349    0.0000 H       1  UNL1        0.0268
     34 H           5.0656   -0.5349    0.0000 H       1  UNL1        0.0270
     35 H           5.8626   -0.5349    0.0000 H       1  UNL1        0.0270
     36 H          11.9248    0.9149    0.0000 H       1  UNL1        0.0307
     37 H          11.1278    0.9149    0.0000 H       1  UNL1        0.0307
     38 H           4.9966    0.9149    0.0000 H       1  UNL1        0.0377
     39 H           4.1996    0.9149    0.0000 H       1  UNL1        0.0377
     40 H          12.3923   -0.6800    0.0000 H       1  UNL1        0.0569
     41 H          13.2583    1.0600    0.0000 H       1  UNL1        0.0572
     42 H          13.7258   -0.5349    0.0000 H       1  UNL1        0.0350
     43 H          14.5229   -0.5349    0.0000 H       1  UNL1        0.0350
     44 H          14.9904    1.0600    0.0000 H       1  UNL1        0.0572
     45 H          17.1210    0.9149    0.0000 H       1  UNL1        0.0307
     46 H          16.3239    0.9149    0.0000 H       1  UNL1        0.0307
     47 H          15.8564   -0.6800    0.0000 H       1  UNL1        0.0569
     48 H          17.1899   -0.5349    0.0000 H       1  UNL1        0.0266
     49 H          17.9870   -0.5349    0.0000 H       1  UNL1        0.0266
     50 H          18.7645   -0.0969    0.0000 H       1  UNL1        0.0230
     51 H          18.9914    0.7500    0.0000 H       1  UNL1        0.0230
     52 H          18.1445    0.9769    0.0000 H       1  UNL1        0.0230
     53 H           1.6900    0.4769    0.0000 H       1  UNL1        0.0661
     54 H           1.4631   -0.3700    0.0000 H       1  UNL1        0.0661
     55 H           2.3100   -0.5969    0.0000 H       1  UNL1        0.0661
@<TRIPOS>BOND
     1     1    13    1
     2     1    20    1
     3     2    13    2
     4     3     4    1
     5     3     5    1
     6     3    22    1
     7     3    23    1
     8     4     6    1
     9     4    24    1
    10     4    25    1
    11     5     7    1
    12     5    26    1
    13     5    27    1
    14     6     8    1
    15     6    28    1
    16     6    29    1
    17     7     9    1
    18     7    30    1
    19     7    31    1
    20     8    10    1
    21     8    32    1
    22     8    33    1
    23     9    11    1
    24     9    34    1
    25     9    35    1
    26    10    12    1
    27    10    36    1
    28    10    37    1
    29    11    13    1
    30    11    38    1
    31    11    39    1
    32    12    14    2
    33    12    40    1
    34    14    15    1
    35    14    41    1
    36    15    16    1
    37    15    42    1
    38    15    43    1
    39    16    18    2
    40    16    44    1
    41    17    18    1
    42    17    19    1
    43    17    45    1
    44    17    46    1
    45    18    47    1
    46    19    21    1
    47    19    48    1
    48    19    49    1
    49    20    53    1
    50    20    54    1
    51    20    55    1
    52    21    50    1
    53    21    51    1
    54    21    52    1
