@<TRIPOS>MOLECULE
IMPHY013491
 53 56 0 0 0
SMALL
GASTEIGER

@<TRIPOS>ATOM
      1 O           5.6972   -4.0493    0.0000 O.3     1  UNL1       -0.4525
      2 O           4.4992   -2.9744    0.0000 O.3     1  UNL1       -0.4489
      3 O           6.9939    1.5493    0.0000 O.3     1  UNL1       -0.4216
      4 O           5.2536   -0.5446    0.0000 O.3     1  UNL1       -0.5028
      5 O           4.5981    3.5493    0.0000 O.3     1  UNL1       -0.4906
      6 O           2.8660    2.5493    0.0000 O.3     1  UNL1       -0.4914
      7 O           6.7210    3.3045    0.0000 O.2     1  UNL1       -0.2444
      8 N           8.7477   -3.1880    0.0000 N.3     1  UNL1       -0.3080
      9 C           7.2591   -1.8523    0.0000 C.ar    1  UNL1       -0.0317
     10 C           8.2096   -1.5417    0.0000 C.3     1  UNL1       -0.0141
     11 C           6.5148   -1.1845    0.0000 C.ar    1  UNL1        0.0270
     12 C           8.9539   -2.2095    0.0000 C.3     1  UNL1        0.0023
     13 C           7.0529   -2.8308    0.0000 C.ar    1  UNL1       -0.0121
     14 C           5.5642   -1.4951    0.0000 C.ar    1  UNL1        0.1700
     15 C           6.1023   -3.1415    0.0000 C.ar    1  UNL1        0.1702
     16 C           5.3580   -2.4736    0.0000 C.ar    1  UNL1        0.2079
     17 C           6.7210   -0.2060    0.0000 C.2     1  UNL1       -0.0076
     18 C           6.4103    0.7445    0.0000 C.2     1  UNL1        0.1407
     19 C           5.4641    1.0493    0.0000 C.ar    1  UNL1        0.0352
     20 C           5.4641    2.0493    0.0000 C.ar    1  UNL1        0.1151
     21 C           4.7085   -3.9462    0.0000 C.3     1  UNL1        0.2334
     22 C           4.5981    2.5493    0.0000 C.ar    1  UNL1        0.1762
     23 C           4.5981    0.5493    0.0000 C.ar    1  UNL1       -0.0466
     24 C           6.4103    2.3540    0.0000 C.2     1  UNL1        0.3488
     25 C           9.4920   -3.8558    0.0000 C.3     1  UNL1       -0.0130
     26 C           7.7972   -3.4986    0.0000 C.3     1  UNL1       -0.0130
     27 C           3.7320    2.0493    0.0000 C.ar    1  UNL1        0.1623
     28 C           3.7320    1.0493    0.0000 C.ar    1  UNL1       -0.0156
     29 C           3.7320    4.0493    0.0000 C.3     1  UNL1        0.0790
     30 C           2.0000    2.0493    0.0000 C.3     1  UNL1        0.0790
     31 H           8.6975   -1.1591    0.0000 H       1  UNL1        0.0326
     32 H           7.9176   -0.9947    0.0000 H       1  UNL1        0.0326
     33 H           9.5291   -2.4408    0.0000 H       1  UNL1        0.0429
     34 H           9.2815   -1.6832    0.0000 H       1  UNL1        0.0429
     35 H           7.5144   -3.2449    0.0000 H       1  UNL1        0.0658
     36 H           7.3277   -0.3338    0.0000 H       1  UNL1        0.0662
     37 H           4.0920   -4.0123    0.0000 H       1  UNL1        0.1166
     38 H           4.7094   -4.5662    0.0000 H       1  UNL1        0.1166
     39 H           4.5981   -0.0707    0.0000 H       1  UNL1        0.0626
     40 H           9.0779   -4.3173    0.0000 H       1  UNL1        0.0391
     41 H           9.9534   -4.2699    0.0000 H       1  UNL1        0.0391
     42 H           9.9060   -3.3944    0.0000 H       1  UNL1        0.0391
     43 H           7.6046   -2.9093    0.0000 H       1  UNL1        0.0391
     44 H           7.2079   -3.6913    0.0000 H       1  UNL1        0.0391
     45 H           7.9898   -4.0880    0.0000 H       1  UNL1        0.0391
     46 H           3.1951    0.7393    0.0000 H       1  UNL1        0.0655
     47 H           4.6469   -0.4168    0.0000 H       1  UNL1        0.2923
     48 H           4.0420    4.5862    0.0000 H       1  UNL1        0.0660
     49 H           3.1951    4.3593    0.0000 H       1  UNL1        0.0660
     50 H           3.4220    3.5123    0.0000 H       1  UNL1        0.0660
     51 H           1.6900    2.5862    0.0000 H       1  UNL1        0.0660
     52 H           1.4631    1.7393    0.0000 H       1  UNL1        0.0660
     53 H           2.3100    1.5123    0.0000 H       1  UNL1        0.0660
@<TRIPOS>BOND
     1     1    15    1
     2     1    21    1
     3     2    16    1
     4     2    21    1
     5     3    18    1
     6     3    24    1
     7     4    14    1
     8     4    47    1
     9     5    22    1
    10     5    29    1
    11     6    27    1
    12     6    30    1
    13     7    24    2
    14     8    12    1
    15     8    25    1
    16     8    26    1
    17     9    10    1
    18     9    11   ar
    19     9    13   ar
    20    10    12    1
    21    10    31    1
    22    10    32    1
    23    11    14   ar
    24    11    17    1
    25    12    33    1
    26    12    34    1
    27    13    15   ar
    28    13    35    1
    29    14    16   ar
    30    15    16   ar
    31    17    18    2
    32    17    36    1
    33    18    19    1
    34    19    20   ar
    35    19    23   ar
    36    20    22   ar
    37    20    24    1
    38    21    37    1
    39    21    38    1
    40    22    27   ar
    41    23    28   ar
    42    23    39    1
    43    25    40    1
    44    25    41    1
    45    25    42    1
    46    26    43    1
    47    26    44    1
    48    26    45    1
    49    27    28   ar
    50    28    46    1
    51    29    48    1
    52    29    49    1
    53    29    50    1
    54    30    51    1
    55    30    52    1
    56    30    53    1
