@<TRIPOS>MOLECULE
IMPHY000159
 46 49 0 0 0
SMALL
GASTEIGER

@<TRIPOS>ATOM
      1 O          11.0871   -0.7757    0.0000 O.3     1  UNL1       -0.3323
      2 O           9.9754    0.7618    0.0000 O.3     1  UNL1       -0.4625
      3 O           9.1986   -2.5317    0.0000 O.3     1  UNL1       -0.3881
      4 O           7.3529   -1.3761    0.0000 O.3     1  UNL1       -0.5056
      5 O           5.6653   -0.8168    0.0000 O.2     1  UNL1       -0.2872
      6 C           9.4754   -0.7771    0.0000 C.3     1  UNL1        0.0821
      7 C           9.7850   -1.7217    0.0000 C.3     1  UNL1        0.0964
      8 C          10.7791   -1.7208    0.0000 C.3     1  UNL1        0.0945
      9 C          10.2844   -0.1893    0.0000 C.3     1  UNL1        0.2118
     10 C           8.6663   -0.1893    0.0000 C.ar    1  UNL1        0.0480
     11 C          11.7301   -2.0299    0.0000 C.3     1  UNL1       -0.0335
     12 C          10.7791   -2.7208    0.0000 C.3     1  UNL1       -0.0335
     13 C           8.9754    0.7618    0.0000 C.ar    1  UNL1        0.1311
     14 C           7.6509   -0.4215    0.0000 C.ar    1  UNL1        0.1348
     15 C           8.2904    1.5465    0.0000 C.ar    1  UNL1       -0.0186
     16 C           6.9480    0.3471    0.0000 C.ar    1  UNL1        0.0635
     17 C           7.2699    1.3378    0.0000 C.ar    1  UNL1       -0.0439
     18 C           5.9706    0.1355    0.0000 C.2     1  UNL1        0.1896
     19 C           5.2987    0.8760    0.0000 C.2     1  UNL1       -0.0137
     20 C           4.3213    0.6643    0.0000 C.2     1  UNL1       -0.0510
     21 C           3.6493    1.4049    0.0000 C.ar    1  UNL1       -0.0249
     22 C           3.9547    2.3571    0.0000 C.ar    1  UNL1       -0.0546
     23 C           2.6720    1.1932    0.0000 C.ar    1  UNL1       -0.0546
     24 C           3.2827    3.0977    0.0000 C.ar    1  UNL1       -0.0612
     25 C           2.0000    1.9338    0.0000 C.ar    1  UNL1       -0.0612
     26 C           2.3053    2.8860    0.0000 C.ar    1  UNL1       -0.0617
     27 H           8.7883   -1.2776    0.0000 H       1  UNL1        0.0439
     28 H           9.1724   -1.6260    0.0000 H       1  UNL1        0.0630
     29 H          10.9727    0.3094    0.0000 H       1  UNL1        0.1063
     30 H          11.5385   -2.6195    0.0000 H       1  UNL1        0.0258
     31 H          12.3198   -2.2214    0.0000 H       1  UNL1        0.0258
     32 H          11.9217   -1.4402    0.0000 H       1  UNL1        0.0258
     33 H          10.1591   -2.7208    0.0000 H       1  UNL1        0.0258
     34 H          10.7791   -3.3408    0.0000 H       1  UNL1        0.0258
     35 H          11.3991   -2.7208    0.0000 H       1  UNL1        0.0258
     36 H           9.4518   -3.0977    0.0000 H       1  UNL1        0.2099
     37 H           8.4888    2.1339    0.0000 H       1  UNL1        0.0654
     38 H           6.8568    1.8001    0.0000 H       1  UNL1        0.0627
     39 H           6.7480   -1.5120    0.0000 H       1  UNL1        0.2922
     40 H           5.4880    1.4664    0.0000 H       1  UNL1        0.0656
     41 H           4.1320    0.0740    0.0000 H       1  UNL1        0.0625
     42 H           4.5606    2.4884    0.0000 H       1  UNL1        0.0623
     43 H           2.4827    0.6028    0.0000 H       1  UNL1        0.0623
     44 H           3.4720    3.6881    0.0000 H       1  UNL1        0.0618
     45 H           1.3940    1.8025    0.0000 H       1  UNL1        0.0618
     46 H           1.8887    3.3452    0.0000 H       1  UNL1        0.0618
@<TRIPOS>BOND
     1     1     8    1
     2     1     9    1
     3     2     9    1
     4     2    13    1
     5     7     3    1
     6     3    36    1
     7     4    14    1
     8     4    39    1
     9     5    18    2
    10     6     7    1
    11     6     9    1
    12     6    10    1
    13     6    27    1
    14     7     8    1
    15     7    28    1
    16     8    11    1
    17     8    12    1
    18     9    29    1
    19    10    13   ar
    20    10    14   ar
    21    11    30    1
    22    11    31    1
    23    11    32    1
    24    12    33    1
    25    12    34    1
    26    12    35    1
    27    13    15   ar
    28    14    16   ar
    29    15    17   ar
    30    15    37    1
    31    16    17   ar
    32    16    18    1
    33    17    38    1
    34    18    19    1
    35    19    20    2
    36    19    40    1
    37    20    21    1
    38    20    41    1
    39    21    22   ar
    40    21    23   ar
    41    22    24   ar
    42    22    42    1
    43    23    25   ar
    44    23    43    1
    45    24    26   ar
    46    24    44    1
    47    25    26   ar
    48    25    45    1
    49    26    46    1
