@<TRIPOS>MOLECULE
IMPHY011615
 68 72 0 0 0
SMALL
GASTEIGER

@<TRIPOS>ATOM
      1 O           7.7331   -1.7500    0.0000 O.3     1  UNL1       -0.3609
      2 O           4.2690    1.2500    0.0000 O.3     1  UNL1       -0.3664
      3 O           5.1350   -1.2500    0.0000 O.3     1  UNL1       -0.3862
      4 O           5.1350   -3.2500    0.0000 O.3     1  UNL1       -0.3865
      5 O           6.8671   -4.2500    0.0000 O.3     1  UNL1       -0.3865
      6 O           6.0010    3.2500    0.0000 O.3     1  UNL1       -0.3862
      7 O           8.6270   -0.2847    0.0000 O.2     1  UNL1       -0.4540
      8 O           4.2690    4.2500    0.0000 O.3     1  UNL1       -0.3865
      9 O           5.1350   -0.2500    0.0000 O.3     1  UNL1       -0.5058
     10 O           2.5369    3.2500    0.0000 O.3     1  UNL1       -0.3869
     11 O           8.5991   -4.2500    0.0000 O.3     1  UNL1       -0.3924
     12 O           6.8671    2.7500    0.0000 O.3     1  UNL1       -0.5054
     13 O           8.6155    2.7846    0.0000 O.2     1  UNL1       -0.2869
     14 O          12.9895   -1.7842    0.0000 O.3     1  UNL1       -0.5068
     15 C           6.8671   -1.2500    0.0000 C.3     1  UNL1        0.1193
     16 C           6.0010   -1.7500    0.0000 C.3     1  UNL1        0.1139
     17 C           6.0010   -2.7500    0.0000 C.3     1  UNL1        0.1121
     18 C           6.8671   -3.2500    0.0000 C.3     1  UNL1        0.1117
     19 C           7.7331   -2.7500    0.0000 C.3     1  UNL1        0.1108
     20 C           6.8671   -0.2500    0.0000 C.ar    1  UNL1        0.0686
     21 C           5.1350    1.7500    0.0000 C.3     1  UNL1        0.1188
     22 C           5.1350    2.7500    0.0000 C.3     1  UNL1        0.1139
     23 C           6.0010    1.2500    0.0000 C.ar    1  UNL1        0.0677
     24 C           4.2690    3.2500    0.0000 C.3     1  UNL1        0.1117
     25 C           6.0010    0.2500    0.0000 C.ar    1  UNL1        0.1353
     26 C           3.4030    2.7500    0.0000 C.3     1  UNL1        0.1068
     27 C           7.7331    0.2500    0.0000 C.ar    1  UNL1        0.1520
     28 C           8.5991   -3.2500    0.0000 C.3     1  UNL1        0.0729
     29 C           3.4030    1.7500    0.0000 C.3     1  UNL1        0.0770
     30 C           6.8671    1.7500    0.0000 C.ar    1  UNL1        0.1404
     31 C           7.7331    1.2500    0.0000 C.ar    1  UNL1        0.1062
     32 C           8.6270    1.7847    0.0000 C.ar    1  UNL1        0.1966
     33 C           9.5331    0.2292    0.0000 C.ar    1  UNL1        0.1392
     34 C           9.5331    1.2708    0.0000 C.ar    1  UNL1        0.0288
     35 C          10.3972   -0.2742    0.0000 C.ar    1  UNL1        0.0176
     36 C          10.3933   -1.2741    0.0000 C.ar    1  UNL1       -0.0476
     37 C          11.2651    0.2225    0.0000 C.ar    1  UNL1       -0.0476
     38 C          11.2574   -1.7775    0.0000 C.ar    1  UNL1       -0.0195
     39 C          12.1292   -0.2808    0.0000 C.ar    1  UNL1       -0.0195
     40 C          12.1254   -1.2808    0.0000 C.ar    1  UNL1        0.1169
     41 H           6.1309   -0.8250    0.0000 H       1  UNL1        0.0676
     42 H           5.4641   -2.0600    0.0000 H       1  UNL1        0.0649
     43 H           6.9488   -3.0600    0.0000 H       1  UNL1        0.0647
     44 H           6.3301   -3.5600    0.0000 H       1  UNL1        0.0647
     45 H           8.2700   -2.4400    0.0000 H       1  UNL1        0.0646
     46 H           5.1350    0.9000    0.0000 H       1  UNL1        0.0675
     47 H           5.1350    3.3700    0.0000 H       1  UNL1        0.0649
     48 H           3.7320    3.5600    0.0000 H       1  UNL1        0.0647
     49 H           3.9650    3.3700    0.0000 H       1  UNL1        0.0643
     50 H           9.2097   -3.3577    0.0000 H       1  UNL1        0.0584
     51 H           8.8112   -2.6674    0.0000 H       1  UNL1        0.0584
     52 H           2.7924    1.8577    0.0000 H       1  UNL1        0.0587
     53 H           3.1909    1.1674    0.0000 H       1  UNL1        0.0587
     54 H           4.5981   -1.5600    0.0000 H       1  UNL1        0.2100
     55 H           5.1350   -3.8700    0.0000 H       1  UNL1        0.2100
     56 H           6.3301   -4.5600    0.0000 H       1  UNL1        0.2100
     57 H           6.0010    3.8700    0.0000 H       1  UNL1        0.2100
     58 H           3.7320    4.5600    0.0000 H       1  UNL1        0.2100
     59 H           4.5981    0.0600    0.0000 H       1  UNL1        0.2922
     60 H           2.0000    2.9400    0.0000 H       1  UNL1        0.2100
     61 H          10.0688    1.5829    0.0000 H       1  UNL1        0.0693
     62 H           9.1360   -4.5600    0.0000 H       1  UNL1        0.2095
     63 H           7.4040    3.0600    0.0000 H       1  UNL1        0.2922
     64 H           9.8552   -1.5821    0.0000 H       1  UNL1        0.0626
     65 H          11.2675    0.8425    0.0000 H       1  UNL1        0.0626
     66 H          11.2550   -2.3975    0.0000 H       1  UNL1        0.0654
     67 H          12.6674    0.0271    0.0000 H       1  UNL1        0.0654
     68 H          13.5276   -1.4762    0.0000 H       1  UNL1        0.2921
@<TRIPOS>BOND
     1     1    15    1
     2     1    19    1
     3     2    21    1
     4     2    29    1
     5     3    16    1
     6     3    54    1
     7    17     4    1
     8     4    55    1
     9    18     5    1
    10     5    56    1
    11     6    22    1
    12     6    57    1
    13     7    27   ar
    14     7    33   ar
    15    24     8    1
    16     8    58    1
    17     9    25    1
    18     9    59    1
    19    26    10    1
    20    10    60    1
    21    11    28    1
    22    11    62    1
    23    12    30    1
    24    12    63    1
    25    13    32    2
    26    14    40    1
    27    14    68    1
    28    15    16    1
    29    15    20    1
    30    15    41    1
    31    16    17    1
    32    16    42    1
    33    17    18    1
    34    17    43    1
    35    18    19    1
    36    18    44    1
    37    19    28    1
    38    19    45    1
    39    20    25   ar
    40    20    27   ar
    41    21    22    1
    42    21    23    1
    43    21    46    1
    44    22    24    1
    45    22    47    1
    46    23    25   ar
    47    23    30   ar
    48    24    26    1
    49    24    48    1
    50    26    29    1
    51    26    49    1
    52    27    31   ar
    53    28    50    1
    54    28    51    1
    55    29    52    1
    56    29    53    1
    57    30    31   ar
    58    31    32   ar
    59    32    34   ar
    60    33    34   ar
    61    33    35    1
    62    34    61    1
    63    35    36   ar
    64    35    37   ar
    65    36    38   ar
    66    36    64    1
    67    37    39   ar
    68    37    65    1
    69    38    40   ar
    70    38    66    1
    71    39    40   ar
    72    39    67    1
