@<TRIPOS>MOLECULE
IMPHY016069
 23 22 0 0 0
SMALL
GASTEIGER

@<TRIPOS>ATOM
      1 S           4.5981    0.4400    0.0000 S.3     1  UNL1       -0.0855
      2 S           5.4641   -0.0600    0.0000 S.3     1  UNL1       -0.0649
      3 C           3.7320   -0.0600    0.0000 C.3     1  UNL1        0.0127
      4 C           2.8660    0.4400    0.0000 C.3     1  UNL1       -0.0435
      5 C           3.7320   -1.0600    0.0000 C.3     1  UNL1       -0.0525
      6 C           2.0000   -0.0600    0.0000 C.3     1  UNL1       -0.0643
      7 C           6.3301    0.4400    0.0000 C.2     1  UNL1       -0.0220
      8 C           7.1962   -0.0600    0.0000 C.2     1  UNL1       -0.0801
      9 C           8.0622    0.4400    0.0000 C.3     1  UNL1       -0.0460
     10 H           4.2690   -0.3700    0.0000 H       1  UNL1        0.0418
     11 H           3.2646    0.9149    0.0000 H       1  UNL1        0.0273
     12 H           2.4675    0.9149    0.0000 H       1  UNL1        0.0273
     13 H           3.1120   -1.0600    0.0000 H       1  UNL1        0.0241
     14 H           3.7320   -1.6800    0.0000 H       1  UNL1        0.0241
     15 H           4.3520   -1.0600    0.0000 H       1  UNL1        0.0241
     16 H           1.6900    0.4769    0.0000 H       1  UNL1        0.0230
     17 H           1.4631   -0.3700    0.0000 H       1  UNL1        0.0230
     18 H           2.3100   -0.5969    0.0000 H       1  UNL1        0.0230
     19 H           6.3301    1.0600    0.0000 H       1  UNL1        0.0695
     20 H           7.1962   -0.6800    0.0000 H       1  UNL1        0.0574
     21 H           8.3722   -0.0969    0.0000 H       1  UNL1        0.0272
     22 H           8.5991    0.7500    0.0000 H       1  UNL1        0.0272
     23 H           7.7522    0.9769    0.0000 H       1  UNL1        0.0272
@<TRIPOS>BOND
     1     1     2    1
     2     1     3    1
     3     2     7    1
     4     3     4    1
     5     3     5    1
     6     3    10    1
     7     4     6    1
     8     4    11    1
     9     4    12    1
    10     5    13    1
    11     5    14    1
    12     5    15    1
    13     6    16    1
    14     6    17    1
    15     6    18    1
    16     7     8    2
    17     7    19    1
    18     8     9    1
    19     8    20    1
    20     9    21    1
    21     9    22    1
    22     9    23    1
