@<TRIPOS>MOLECULE
IMPHY009508
 32 35 0 0 0
SMALL
GASTEIGER

@<TRIPOS>ATOM
      1 O           5.9065   -1.0402    0.0000 O.3     1  UNL1       -0.4803
      2 O           8.0505    1.0283    0.0000 O.3     1  UNL1       -0.4881
      3 O           6.0942    1.4441    0.0000 O.3     1  UNL1       -0.3765
      4 O           2.4170   -0.1360    0.0000 O.3     1  UNL1       -0.5066
      5 O          10.6901   -1.3159    0.0000 O.3     1  UNL1       -0.5066
      6 C           6.4033    0.4930    0.0000 C.3     1  UNL1        0.1689
      7 C           6.7123   -0.4580    0.0000 C.3     1  UNL1        0.1645
      8 C           5.4092    0.4904    0.0000 C.ar    1  UNL1        0.0330
      9 C           7.0724    1.2362    0.0000 C.3     1  UNL1        0.1263
     10 C           7.6904   -0.6659    0.0000 C.ar    1  UNL1        0.0378
     11 C           5.1028   -0.4553    0.0000 C.ar    1  UNL1        0.1312
     12 C           8.3596    0.0772    0.0000 C.ar    1  UNL1        0.1309
     13 C           4.7276    1.2699    0.0000 C.ar    1  UNL1       -0.0487
     14 C           7.9970   -1.6614    0.0000 C.ar    1  UNL1       -0.0480
     15 C           4.0936   -0.6870    0.0000 C.ar    1  UNL1        0.0219
     16 C           9.3816   -0.1236    0.0000 C.ar    1  UNL1        0.0219
     17 C           3.7133    1.0616    0.0000 C.ar    1  UNL1       -0.0196
     18 C           3.3942    0.0765    0.0000 C.ar    1  UNL1        0.1204
     19 C           9.0142   -1.8859    0.0000 C.ar    1  UNL1       -0.0196
     20 C           9.7112   -1.1118    0.0000 C.ar    1  UNL1        0.1204
     21 H           6.8879   -1.2897    0.0000 H       1  UNL1        0.0820
     22 H           7.3046    1.8110    0.0000 H       1  UNL1        0.0730
     23 H           6.5466    1.5647    0.0000 H       1  UNL1        0.0730
     24 H           4.9255    1.8575    0.0000 H       1  UNL1        0.0623
     25 H           6.5091    1.9048    0.0000 H       1  UNL1        0.2109
     26 H           7.5768   -2.1174    0.0000 H       1  UNL1        0.0624
     27 H           3.9094   -1.2790    0.0000 H       1  UNL1        0.0691
     28 H           9.7912    0.3419    0.0000 H       1  UNL1        0.0691
     29 H           3.2998    1.5236    0.0000 H       1  UNL1        0.0654
     30 H           9.2035   -2.4762    0.0000 H       1  UNL1        0.0654
     31 H           2.0000    0.3228    0.0000 H       1  UNL1        0.2921
     32 H          10.8840   -1.9048    0.0000 H       1  UNL1        0.2921
@<TRIPOS>BOND
     1     1     7    1
     2     1    11    1
     3     2     9    1
     4     2    12    1
     5     6     3    1
     6     3    25    1
     7     4    18    1
     8     4    31    1
     9     5    20    1
    10     5    32    1
    11     6     7    1
    12     6     8    1
    13     6     9    1
    14     7    10    1
    15     7    21    1
    16     8    11   ar
    17     8    13   ar
    18     9    22    1
    19     9    23    1
    20    10    12   ar
    21    10    14   ar
    22    11    15   ar
    23    12    16   ar
    24    13    17   ar
    25    13    24    1
    26    14    19   ar
    27    14    26    1
    28    15    18   ar
    29    15    27    1
    30    16    20   ar
    31    16    28    1
    32    17    18   ar
    33    17    29    1
    34    19    20   ar
    35    19    30    1
