@<TRIPOS>MOLECULE
IMPHY002162
 100 108 0 0 0
SMALL
GASTEIGER

@<TRIPOS>ATOM
      1 O           8.4203    1.0200    0.0000 O.3     1  UNL1       -0.3406
      2 O           9.1113    2.4548    0.0000 O.3     1  UNL1       -0.3442
      3 O           6.6712    0.5821    0.0000 O.3     1  UNL1       -0.3765
      4 O           5.4641    4.3994    0.0000 O.3     1  UNL1       -0.3791
      5 O           9.1805    4.1478    0.0000 O.3     1  UNL1       -0.3790
      6 O           9.5818    4.8573    0.0000 O.3     1  UNL1       -0.3793
      7 O           4.5981    0.1642    0.0000 O.3     1  UNL1       -0.4605
      8 O           5.4641   -1.3358    0.0000 O.2     1  UNL1       -0.2449
      9 O           2.5155   -4.1394    0.0000 O.2     1  UNL1       -0.2745
     10 O           5.8233   -2.9354    0.0000 O.2     1  UNL1       -0.2748
     11 N           4.2688    2.5703    0.0000 N.3     1  UNL1       -0.2955
     12 N           4.0741   -3.2755    0.0000 N.am    1  UNL1       -0.2094
     13 C           6.2154    2.9656    0.0000 C.3     1  UNL1        0.0245
     14 C           7.7396    1.7501    0.0000 C.3     1  UNL1        0.1435
     15 C           5.2135    2.8595    0.0000 C.3     1  UNL1        0.0533
     16 C           6.2154    2.0980    0.0000 C.3     1  UNL1        0.0078
     17 C           6.8937    3.5065    0.0000 C.3     1  UNL1       -0.0228
     18 C           8.1160    2.5318    0.0000 C.3     1  UNL1        0.1128
     19 C           7.7396    3.3134    0.0000 C.3     1  UNL1        0.0212
     20 C           6.8937    1.5571    0.0000 C.3     1  UNL1        0.0956
     21 C           5.4641    1.6642    0.0000 C.3     1  UNL1        0.0236
     22 C           5.4641    3.3994    0.0000 C.3     1  UNL1        0.0661
     23 C           6.8160    4.3706    0.0000 C.3     1  UNL1       -0.0416
     24 C           7.6137    4.7116    0.0000 C.3     1  UNL1        0.0123
     25 C           8.1846    4.0582    0.0000 C.3     1  UNL1        0.0693
     26 C           8.7609    2.8017    0.0000 C.3     1  UNL1        0.0063
     27 C           4.2688    1.8184    0.0000 C.3     1  UNL1        0.0084
     28 C           8.7609    4.2862    0.0000 C.3     1  UNL1        0.0662
     29 C           4.7128    2.0980    0.0000 C.3     1  UNL1       -0.0404
     30 C           4.7128    2.9656    0.0000 C.3     1  UNL1       -0.0254
     31 C           5.4641    0.6642    0.0000 C.3     1  UNL1        0.0999
     32 C           9.3083    1.4762    0.0000 C.3     1  UNL1        0.1500
     33 C           3.4648    3.1650    0.0000 C.3     1  UNL1       -0.0035
     34 C           7.4043   -0.0980    0.0000 C.3     1  UNL1        0.0369
     35 C           2.5478    2.7661    0.0000 C.3     1  UNL1       -0.0523
     36 C           4.5981    4.8994    0.0000 C.3     1  UNL1        0.0368
     37 C           9.7561    3.3301    0.0000 C.3     1  UNL1        0.0368
     38 C           9.4976    5.8538    0.0000 C.3     1  UNL1        0.0368
     39 C           4.5981   -0.8358    0.0000 C.2     1  UNL1        0.3410
     40 C           3.7320   -1.3358    0.0000 C.ar    1  UNL1        0.0807
     41 C           3.7320   -2.3358    0.0000 C.ar    1  UNL1        0.0578
     42 C           2.8660   -0.8358    0.0000 C.ar    1  UNL1       -0.0459
     43 C           2.8660   -2.8358    0.0000 C.ar    1  UNL1       -0.0390
     44 C           2.0000   -1.3358    0.0000 C.ar    1  UNL1       -0.0609
     45 C           2.0000   -2.3358    0.0000 C.ar    1  UNL1       -0.0599
     46 C           3.5149   -4.1045    0.0000 C.2     1  UNL1        0.2295
     47 C           5.0353   -3.5511    0.0000 C.2     1  UNL1        0.2269
     48 C           4.1305   -4.8925    0.0000 C.3     1  UNL1        0.0419
     49 C           5.0702   -4.5505    0.0000 C.3     1  UNL1        0.0357
     50 C           3.8549   -5.8538    0.0000 C.3     1  UNL1       -0.0536
     51 H           4.9015    3.6502    0.0000 H       1  UNL1        0.0499
     52 H           6.1519    1.2504    0.0000 H       1  UNL1        0.0340
     53 H           6.1121    3.8406    0.0000 H       1  UNL1        0.0312
     54 H           8.5887    3.2753    0.0000 H       1  UNL1        0.0358
     55 H           7.3321    1.1187    0.0000 H       1  UNL1        0.0629
     56 H           6.0010    3.7094    0.0000 H       1  UNL1        0.0602
     57 H           6.6332    4.9630    0.0000 H       1  UNL1        0.0272
     58 H           6.2077    4.2508    0.0000 H       1  UNL1        0.0272
     59 H           7.5930    5.5613    0.0000 H       1  UNL1        0.0351
     60 H           8.4154    4.6336    0.0000 H       1  UNL1        0.0603
     61 H           8.9228    2.2032    0.0000 H       1  UNL1        0.0319
     62 H           9.3755    2.8834    0.0000 H       1  UNL1        0.0319
     63 H           3.6493    1.8450    0.0000 H       1  UNL1        0.0433
     64 H           4.2158    1.2007    0.0000 H       1  UNL1        0.0433
     65 H           8.6827    4.9013    0.0000 H       1  UNL1        0.0600
     66 H           4.1022    2.2057    0.0000 H       1  UNL1        0.0273
     67 H           4.5007    1.5154    0.0000 H       1  UNL1        0.0273
     68 H           4.5007    3.5482    0.0000 H       1  UNL1        0.0290
     69 H           4.1022    2.8579    0.0000 H       1  UNL1        0.0290
     70 H           5.6762    0.0816    0.0000 H       1  UNL1        0.0704
     71 H           6.0747    0.7719    0.0000 H       1  UNL1        0.0704
     72 H           9.5397    0.9010    0.0000 H       1  UNL1        0.0872
     73 H           9.9023    1.6538    0.0000 H       1  UNL1        0.0872
     74 H           3.9145    3.5919    0.0000 H       1  UNL1        0.0424
     75 H           3.1225    3.6820    0.0000 H       1  UNL1        0.0424
     76 H           6.9826   -0.5525    0.0000 H       1  UNL1        0.0524
     77 H           7.8588   -0.5197    0.0000 H       1  UNL1        0.0524
     78 H           7.8260    0.3565    0.0000 H       1  UNL1        0.0524
     79 H           2.3005    3.3346    0.0000 H       1  UNL1        0.0242
     80 H           1.9793    2.5188    0.0000 H       1  UNL1        0.0242
     81 H           2.7951    2.1976    0.0000 H       1  UNL1        0.0242
     82 H           4.9081    5.4363    0.0000 H       1  UNL1        0.0524
     83 H           4.0611    5.2094    0.0000 H       1  UNL1        0.0524
     84 H           4.2881    4.3624    0.0000 H       1  UNL1        0.0524
     85 H           9.2492    2.9732    0.0000 H       1  UNL1        0.0524
     86 H          10.1130    2.8232    0.0000 H       1  UNL1        0.0524
     87 H          10.2631    3.6870    0.0000 H       1  UNL1        0.0524
     88 H          10.1154    5.9060    0.0000 H       1  UNL1        0.0524
     89 H           9.4454    6.4716    0.0000 H       1  UNL1        0.0524
     90 H           8.8798    5.8016    0.0000 H       1  UNL1        0.0524
     91 H           2.8660   -0.2158    0.0000 H       1  UNL1        0.0626
     92 H           2.8660   -3.4558    0.0000 H       1  UNL1        0.0636
     93 H           1.4631   -1.0258    0.0000 H       1  UNL1        0.0618
     94 H           1.4631   -2.6458    0.0000 H       1  UNL1        0.0618
     95 H           4.5840   -5.3154    0.0000 H       1  UNL1        0.0396
     96 H           5.2202   -5.1521    0.0000 H       1  UNL1        0.0366
     97 H           5.6842   -4.4642    0.0000 H       1  UNL1        0.0366
     98 H           3.2589   -5.6829    0.0000 H       1  UNL1        0.0237
     99 H           3.6840   -6.4498    0.0000 H       1  UNL1        0.0237
    100 H           4.4509   -6.0247    0.0000 H       1  UNL1        0.0237
@<TRIPOS>BOND
     1    14     1    1
     2     1    32    1
     3    18     2    1
     4     2    32    1
     5    20     3    1
     6     3    34    1
     7    22     4    1
     8     4    36    1
     9    25     5    1
    10     5    37    1
    11    28     6    1
    12     6    38    1
    13     7    31    1
    14     7    39    1
    15     8    39    2
    16     9    46    2
    17    10    47    2
    18    11    15    1
    19    11    27    1
    20    11    33    1
    21    12    41    1
    22    12    46   am
    23    12    47   am
    24    13    15    1
    25    13    16    1
    26    13    17    1
    27    13    22    1
    28    14    15    1
    29    14    18    1
    30    14    20    1
    31    15    51    1
    32    16    20    1
    33    16    21    1
    34    16    52    1
    35    17    19    1
    36    17    23    1
    37    17    53    1
    38    18    19    1
    39    18    26    1
    40    19    25    1
    41    19    54    1
    42    20    55    1
    43    21    27    1
    44    21    29    1
    45    21    31    1
    46    22    30    1
    47    22    56    1
    48    23    24    1
    49    23    57    1
    50    23    58    1
    51    24    25    1
    52    24    28    1
    53    24    59    1
    54    25    60    1
    55    26    28    1
    56    26    61    1
    57    26    62    1
    58    27    63    1
    59    27    64    1
    60    28    65    1
    61    29    30    1
    62    29    66    1
    63    29    67    1
    64    30    68    1
    65    30    69    1
    66    31    70    1
    67    31    71    1
    68    32    72    1
    69    32    73    1
    70    33    35    1
    71    33    74    1
    72    33    75    1
    73    34    76    1
    74    34    77    1
    75    34    78    1
    76    35    79    1
    77    35    80    1
    78    35    81    1
    79    36    82    1
    80    36    83    1
    81    36    84    1
    82    37    85    1
    83    37    86    1
    84    37    87    1
    85    38    88    1
    86    38    89    1
    87    38    90    1
    88    39    40    1
    89    40    41   ar
    90    40    42   ar
    91    41    43   ar
    92    42    44   ar
    93    42    91    1
    94    43    45   ar
    95    43    92    1
    96    44    45   ar
    97    44    93    1
    98    45    94    1
    99    46    48    1
   100    47    49    1
   101    48    49    1
   102    48    50    1
   103    48    95    1
   104    49    96    1
   105    49    97    1
   106    50    98    1
   107    50    99    1
   108    50   100    1
