@<TRIPOS>MOLECULE
IMPHY007982
 198 208 0 0 0
SMALL
GASTEIGER

@<TRIPOS>ATOM
      1 O          11.3261   -0.2803    0.0000 O.3     1  UNL1       -0.3449
      2 O           9.4651   -9.5388    0.0000 O.3     1  UNL1       -0.4318
      3 O           8.5991   -8.0388    0.0000 O.2     1  UNL1       -0.2501
      4 O          13.0581   -0.3003    0.0000 O.3     1  UNL1       -0.3461
      5 O          11.3493    1.7196    0.0000 O.3     1  UNL1       -0.3378
      6 O           7.7331   -9.5388    0.0000 O.3     1  UNL1       -0.3312
      7 O          13.0928    2.6995    0.0000 O.3     1  UNL1       -0.3864
      8 O          14.8131    1.6795    0.0000 O.3     1  UNL1       -0.3869
      9 O           9.4651  -11.5388    0.0000 O.3     1  UNL1       -0.3829
     10 O           7.7331  -12.5388    0.0000 O.3     1  UNL1       -0.3864
     11 O          12.2326    3.2094    0.0000 O.3     1  UNL1       -0.3431
     12 O           6.0010  -11.5388    0.0000 O.3     1  UNL1       -0.3865
     13 O           6.0010   -8.5388    0.0000 O.3     1  UNL1       -0.3460
     14 O           9.6289    2.7395    0.0000 O.3     1  UNL1       -0.3841
     15 O           9.6520    4.7394    0.0000 O.3     1  UNL1       -0.3401
     16 O          11.3955    5.7193    0.0000 O.3     1  UNL1       -0.3866
     17 O           5.1350   -7.0388    0.0000 O.3     1  UNL1       -0.3405
     18 O          10.5353    6.2293    0.0000 O.3     1  UNL1       -0.3460
     19 O           4.2690   -9.5388    0.0000 O.3     1  UNL1       -0.3841
     20 O           7.9316    5.7594    0.0000 O.3     1  UNL1       -0.3841
     21 O           2.5369   -8.5388    0.0000 O.3     1  UNL1       -0.3864
     22 O           2.5369   -6.5388    0.0000 O.3     1  UNL1       -0.3865
     23 O           7.9548    7.7592    0.0000 O.3     1  UNL1       -0.3864
     24 O           9.6983    8.7391    0.0000 O.3     1  UNL1       -0.3405
     25 O           3.4030   -5.0388    0.0000 O.3     1  UNL1       -0.3924
     26 O          10.5816   10.2290    0.0000 O.3     1  UNL1       -0.3405
     27 O          11.4186    7.7192    0.0000 O.3     1  UNL1       -0.3841
     28 O          13.1621    8.6991    0.0000 O.3     1  UNL1       -0.3864
     29 O          13.1853   10.6989    0.0000 O.3     1  UNL1       -0.3865
     30 O          10.6047   12.2289    0.0000 O.3     1  UNL1       -0.3924
     31 C          10.3708   -4.9698    0.0000 C.3     1  UNL1       -0.0194
     32 C          11.2406   -4.4765    0.0000 C.3     1  UNL1       -0.0257
     33 C          11.2647   -3.4351    0.0000 C.3     1  UNL1       -0.0250
     34 C          10.3631   -5.9698    0.0000 C.3     1  UNL1       -0.0051
     35 C          10.3708   -2.9005    0.0000 C.3     1  UNL1       -0.0278
     36 C           9.4647   -4.4559    0.0000 C.3     1  UNL1       -0.0463
     37 C          10.3708   -1.8155    0.0000 C.3     1  UNL1       -0.0052
     38 C           9.4647   -3.4143    0.0000 C.3     1  UNL1       -0.0486
     39 C          11.2252   -6.4764    0.0000 C.2     1  UNL1       -0.0629
     40 C          11.2332   -7.5180    0.0000 C.3     1  UNL1       -0.0031
     41 C          12.1028   -4.9831    0.0000 C.3     1  UNL1       -0.0306
     42 C          12.2206   -2.9219    0.0000 C.3     1  UNL1       -0.0447
     43 C           9.4492   -6.4696    0.0000 C.3     1  UNL1       -0.0424
     44 C          10.3312   -8.0388    0.0000 C.3     1  UNL1        0.0744
     45 C           9.3846   -5.1358    0.0000 C.3     1  UNL1       -0.0585
     46 C          11.3146   -1.2802    0.0000 C.3     1  UNL1        0.0672
     47 C           9.4331   -7.5111    0.0000 C.3     1  UNL1       -0.0359
     48 C          12.1229   -3.9484    0.0000 C.3     1  UNL1       -0.0590
     49 C          12.0951   -5.9831    0.0000 C.2     1  UNL1       -0.0836
     50 C          12.2457   -1.8372    0.0000 C.3     1  UNL1       -0.0255
     51 C           9.3796   -5.7885    0.0000 C.3     1  UNL1       -0.0553
     52 C          12.1811   -8.0460    0.0000 C.3     1  UNL1       -0.0403
     53 C          10.3144   -9.1237    0.0000 C.3     1  UNL1       -0.0362
     54 C          12.1895   -9.1309    0.0000 C.3     1  UNL1       -0.0343
     55 C           9.8741   -0.9475    0.0000 C.3     1  UNL1       -0.0572
     56 C           9.3708   -1.8116    0.0000 C.3     1  UNL1       -0.0572
     57 C          11.2499   -9.6734    0.0000 C.3     1  UNL1       -0.0468
     58 C           9.4651   -8.5388    0.0000 C.2     1  UNL1        0.3161
     59 C          13.1895   -9.1271    0.0000 C.3     1  UNL1       -0.0598
     60 C          12.6928   -9.9950    0.0000 C.3     1  UNL1       -0.0598
     61 C          12.1979    0.2097    0.0000 C.3     1  UNL1        0.1882
     62 C          12.2094    1.2096    0.0000 C.3     1  UNL1        0.1406
     63 C           8.5991  -10.0388    0.0000 C.3     1  UNL1        0.2337
     64 C          13.0812    1.6995    0.0000 C.3     1  UNL1        0.1141
     65 C          13.9298    0.1896    0.0000 C.3     1  UNL1        0.0792
     66 C          13.9414    1.1896    0.0000 C.3     1  UNL1        0.1069
     67 C           8.5991  -11.0388    0.0000 C.3     1  UNL1        0.1455
     68 C           7.7331  -11.5388    0.0000 C.3     1  UNL1        0.1152
     69 C           6.8671  -10.0388    0.0000 C.3     1  UNL1        0.1144
     70 C           6.8671  -11.0388    0.0000 C.3     1  UNL1        0.1120
     71 C          11.3608    2.7195    0.0000 C.3     1  UNL1        0.1884
     72 C          10.5006    3.2295    0.0000 C.3     1  UNL1        0.1345
     73 C           6.0010   -9.5388    0.0000 C.3     1  UNL1        0.0796
     74 C          10.5122    4.2294    0.0000 C.3     1  UNL1        0.1205
     75 C          12.2441    4.2094    0.0000 C.3     1  UNL1        0.0873
     76 C          11.3839    4.7194    0.0000 C.3     1  UNL1        0.1098
     77 C          13.1159    4.6993    0.0000 C.3     1  UNL1       -0.0361
     78 C           5.1350   -8.0388    0.0000 C.3     1  UNL1        0.1880
     79 C           9.6636    5.7393    0.0000 C.3     1  UNL1        0.1880
     80 C           4.2690   -8.5388    0.0000 C.3     1  UNL1        0.1341
     81 C           8.8034    6.2493    0.0000 C.3     1  UNL1        0.1341
     82 C           3.4030   -8.0388    0.0000 C.3     1  UNL1        0.1141
     83 C           4.2690   -6.5388    0.0000 C.3     1  UNL1        0.1130
     84 C           3.4030   -7.0388    0.0000 C.3     1  UNL1        0.1119
     85 C           8.8150    7.2492    0.0000 C.3     1  UNL1        0.1141
     86 C          10.5469    7.2292    0.0000 C.3     1  UNL1        0.0796
     87 C           9.6867    7.7392    0.0000 C.3     1  UNL1        0.1134
     88 C           4.2690   -5.5388    0.0000 C.3     1  UNL1        0.0730
     89 C          10.5700    9.2291    0.0000 C.3     1  UNL1        0.1884
     90 C          11.4302    8.7191    0.0000 C.3     1  UNL1        0.1341
     91 C          12.3019    9.2090    0.0000 C.3     1  UNL1        0.1141
     92 C          11.4533   10.7190    0.0000 C.3     1  UNL1        0.1130
     93 C          12.3135   10.2090    0.0000 C.3     1  UNL1        0.1119
     94 C          11.4649   11.7189    0.0000 C.3     1  UNL1        0.0730
     95 H          11.9832   -4.0629    0.0000 H       1  UNL1        0.0315
     96 H           9.6363   -2.4726    0.0000 H       1  UNL1        0.0312
     97 H           8.8539   -4.3498    0.0000 H       1  UNL1        0.0271
     98 H           9.2556   -5.0396    0.0000 H       1  UNL1        0.0271
     99 H           9.2556   -2.8306    0.0000 H       1  UNL1        0.0268
    100 H           8.8539   -3.5204    0.0000 H       1  UNL1        0.0268
    101 H          11.9644   -7.0845    0.0000 H       1  UNL1        0.0357
    102 H          12.7125   -5.0955    0.0000 H       1  UNL1        0.0310
    103 H          12.3193   -4.4022    0.0000 H       1  UNL1        0.0310
    104 H          12.4161   -3.5102    0.0000 H       1  UNL1        0.0271
    105 H          12.8338   -2.8299    0.0000 H       1  UNL1        0.0271
    106 H           9.2492   -5.8827    0.0000 H       1  UNL1        0.0274
    107 H           8.8368   -6.5662    0.0000 H       1  UNL1        0.0274
    108 H           9.2817   -4.5244    0.0000 H       1  UNL1        0.0235
    109 H           8.7733   -5.2387    0.0000 H       1  UNL1        0.0235
    110 H           9.4876   -5.7472    0.0000 H       1  UNL1        0.0235
    111 H          11.8556   -0.9775    0.0000 H       1  UNL1        0.0602
    112 H           8.8240   -7.3956    0.0000 H       1  UNL1        0.0276
    113 H           9.2151   -8.0915    0.0000 H       1  UNL1        0.0276
    114 H          11.8047   -4.4805    0.0000 H       1  UNL1        0.0235
    115 H          12.6550   -4.2667    0.0000 H       1  UNL1        0.0235
    116 H          12.4412   -3.4163    0.0000 H       1  UNL1        0.0235
    117 H          12.6296   -6.2972    0.0000 H       1  UNL1        0.0572
    118 H          12.8540   -1.9573    0.0000 H       1  UNL1        0.0290
    119 H          12.4682   -1.2584    0.0000 H       1  UNL1        0.0290
    120 H           9.4920   -5.1788    0.0000 H       1  UNL1        0.0238
    121 H           8.7699   -5.6762    0.0000 H       1  UNL1        0.0238
    122 H           9.2673   -6.3983    0.0000 H       1  UNL1        0.0238
    123 H          12.7928   -8.1474    0.0000 H       1  UNL1        0.0276
    124 H          12.3857   -7.4607    0.0000 H       1  UNL1        0.0276
    125 H           9.7053   -9.0082    0.0000 H       1  UNL1        0.0276
    126 H          10.0964   -9.7041    0.0000 H       1  UNL1        0.0276
    127 H          10.4122   -0.6396    0.0000 H       1  UNL1        0.0236
    128 H           9.5662   -0.4094    0.0000 H       1  UNL1        0.0236
    129 H           9.3732   -1.1916    0.0000 H       1  UNL1        0.0236
    130 H           8.7508   -1.8092    0.0000 H       1  UNL1        0.0236
    131 H           9.3684   -2.4316    0.0000 H       1  UNL1        0.0236
    132 H           9.3360   -1.2554    0.0000 H       1  UNL1        0.0236
    133 H          10.8489  -10.1463    0.0000 H       1  UNL1        0.0271
    134 H          11.6472  -10.1494    0.0000 H       1  UNL1        0.0271
    135 H          13.1919   -9.7471    0.0000 H       1  UNL1        0.0235
    136 H          13.8095   -9.1247    0.0000 H       1  UNL1        0.0235
    137 H          12.1571  -10.3071    0.0000 H       1  UNL1        0.0235
    138 H          13.0049  -10.5308    0.0000 H       1  UNL1        0.0235
    139 H          13.2286   -9.6830    0.0000 H       1  UNL1        0.0235
    140 H          13.1871   -8.5071    0.0000 H       1  UNL1        0.0235
    141 H          12.1907   -0.4103    0.0000 H       1  UNL1        0.0937
    142 H          12.2166    1.8295    0.0000 H       1  UNL1        0.0675
    143 H           8.5991   -9.4188    0.0000 H       1  UNL1        0.1085
    144 H          13.6217    2.0033    0.0000 H       1  UNL1        0.0648
    145 H          14.1351   -0.3954    0.0000 H       1  UNL1        0.0587
    146 H          14.5416    0.2902    0.0000 H       1  UNL1        0.0587
    147 H          14.4747    0.8734    0.0000 H       1  UNL1        0.0643
    148 H           8.5991  -11.6588    0.0000 H       1  UNL1        0.0683
    149 H           7.1962  -11.8488    0.0000 H       1  UNL1        0.0648
    150 H           6.8671   -9.4188    0.0000 H       1  UNL1        0.0647
    151 H           6.3301  -10.7288    0.0000 H       1  UNL1        0.0647
    152 H          10.8203    2.4157    0.0000 H       1  UNL1        0.0938
    153 H          13.6332    3.0032    0.0000 H       1  UNL1        0.2100
    154 H          15.3464    1.3633    0.0000 H       1  UNL1        0.2100
    155 H          10.0021  -11.2288    0.0000 H       1  UNL1        0.2102
    156 H           9.9673    3.5457    0.0000 H       1  UNL1        0.0671
    157 H           5.3905   -9.4312    0.0000 H       1  UNL1        0.0587
    158 H           5.7890  -10.1214    0.0000 H       1  UNL1        0.0587
    159 H           7.1962  -12.8488    0.0000 H       1  UNL1        0.2100
    160 H          10.5194    4.8494    0.0000 H       1  UNL1        0.0651
    161 H           5.4641  -11.2288    0.0000 H       1  UNL1        0.2100
    162 H          12.7774    3.8932    0.0000 H       1  UNL1        0.0621
    163 H          11.9244    5.0231    0.0000 H       1  UNL1        0.0646
    164 H           9.0956    3.0557    0.0000 H       1  UNL1        0.2101
    165 H          13.4197    4.1588    0.0000 H       1  UNL1        0.0255
    166 H          13.6564    5.0031    0.0000 H       1  UNL1        0.0255
    167 H          12.8121    5.2398    0.0000 H       1  UNL1        0.0255
    168 H           5.1350   -8.6588    0.0000 H       1  UNL1        0.0937
    169 H          11.9360    6.0231    0.0000 H       1  UNL1        0.2100
    170 H           9.1231    5.4356    0.0000 H       1  UNL1        0.0937
    171 H           3.7320   -8.8488    0.0000 H       1  UNL1        0.0671
    172 H           8.2701    6.5655    0.0000 H       1  UNL1        0.0671
    173 H           2.8660   -7.7288    0.0000 H       1  UNL1        0.0648
    174 H           4.8059   -6.2288    0.0000 H       1  UNL1        0.0647
    175 H           3.4030   -6.4188    0.0000 H       1  UNL1        0.0647
    176 H           8.8221    7.8692    0.0000 H       1  UNL1        0.0648
    177 H           3.7320   -9.8488    0.0000 H       1  UNL1        0.2101
    178 H          11.1562    7.1145    0.0000 H       1  UNL1        0.0587
    179 H          10.7657    7.8093    0.0000 H       1  UNL1        0.0587
    180 H          10.2272    8.0430    0.0000 H       1  UNL1        0.0647
    181 H           4.8796   -5.6465    0.0000 H       1  UNL1        0.0584
    182 H           4.4810   -4.9562    0.0000 H       1  UNL1        0.0584
    183 H           7.3983    6.0755    0.0000 H       1  UNL1        0.2101
    184 H           2.0000   -8.2288    0.0000 H       1  UNL1        0.2100
    185 H           2.0000   -6.8488    0.0000 H       1  UNL1        0.2100
    186 H           7.9619    8.3792    0.0000 H       1  UNL1        0.2100
    187 H           3.4030   -4.4188    0.0000 H       1  UNL1        0.2095
    188 H          10.0367    9.5453    0.0000 H       1  UNL1        0.0938
    189 H          10.8897    8.4153    0.0000 H       1  UNL1        0.0671
    190 H          12.8424    9.5128    0.0000 H       1  UNL1        0.0648
    191 H          10.9200   11.0352    0.0000 H       1  UNL1        0.0647
    192 H          12.3207   10.8289    0.0000 H       1  UNL1        0.0647
    193 H          11.9519    7.4030    0.0000 H       1  UNL1        0.2101
    194 H          12.0742   11.6042    0.0000 H       1  UNL1        0.0584
    195 H          11.6837   12.2990    0.0000 H       1  UNL1        0.0584
    196 H          13.7026    9.0028    0.0000 H       1  UNL1        0.2100
    197 H          13.1924   11.3189    0.0000 H       1  UNL1        0.2100
    198 H          10.6119   12.8488    0.0000 H       1  UNL1        0.2095
@<TRIPOS>BOND
     1    46     1    1
     2    61     1    1
     3     2    58    1
     4    63     2    1
     5     3    58    2
     6     4    61    1
     7     4    65    1
     8    62     5    1
     9    71     5    1
    10     6    63    1
    11     6    69    1
    12    64     7    1
    13     7   153    1
    14    66     8    1
    15     8   154    1
    16    67     9    1
    17     9   155    1
    18    68    10    1
    19    10   159    1
    20    11    71    1
    21    11    75    1
    22    70    12    1
    23    12   161    1
    24    13    73    1
    25    78    13    1
    26    72    14    1
    27    14   164    1
    28    74    15    1
    29    79    15    1
    30    76    16    1
    31    16   169    1
    32    17    78    1
    33    17    83    1
    34    18    79    1
    35    18    86    1
    36    80    19    1
    37    19   177    1
    38    81    20    1
    39    20   183    1
    40    82    21    1
    41    21   184    1
    42    84    22    1
    43    22   185    1
    44    85    23    1
    45    23   186    1
    46    87    24    1
    47    89    24    1
    48    25    88    1
    49    25   187    1
    50    26    89    1
    51    26    92    1
    52    90    27    1
    53    27   193    1
    54    91    28    1
    55    28   196    1
    56    93    29    1
    57    29   197    1
    58    30    94    1
    59    30   198    1
    60    31    32    1
    61    31    34    1
    62    31    36    1
    63    31    45    1
    64    32    33    1
    65    32    41    1
    66    32    95    1
    67    33    35    1
    68    33    42    1
    69    33    48    1
    70    34    39    1
    71    34    43    1
    72    34    51    1
    73    35    37    1
    74    35    38    1
    75    35    96    1
    76    36    38    1
    77    36    97    1
    78    36    98    1
    79    37    46    1
    80    37    55    1
    81    37    56    1
    82    38    99    1
    83    38   100    1
    84    39    40    1
    85    39    49    2
    86    40    44    1
    87    40    52    1
    88    40   101    1
    89    41    49    1
    90    41   102    1
    91    41   103    1
    92    42    50    1
    93    42   104    1
    94    42   105    1
    95    43    47    1
    96    43   106    1
    97    43   107    1
    98    44    47    1
    99    44    53    1
   100    44    58    1
   101    45   108    1
   102    45   109    1
   103    45   110    1
   104    46    50    1
   105    46   111    1
   106    47   112    1
   107    47   113    1
   108    48   114    1
   109    48   115    1
   110    48   116    1
   111    49   117    1
   112    50   118    1
   113    50   119    1
   114    51   120    1
   115    51   121    1
   116    51   122    1
   117    52    54    1
   118    52   123    1
   119    52   124    1
   120    53    57    1
   121    53   125    1
   122    53   126    1
   123    54    57    1
   124    54    59    1
   125    54    60    1
   126    55   127    1
   127    55   128    1
   128    55   132    1
   129    56   129    1
   130    56   130    1
   131    56   131    1
   132    57   133    1
   133    57   134    1
   134    59   135    1
   135    59   136    1
   136    59   140    1
   137    60   137    1
   138    60   138    1
   139    60   139    1
   140    61    62    1
   141    61   141    1
   142    62    64    1
   143    62   142    1
   144    63    67    1
   145    63   143    1
   146    64    66    1
   147    64   144    1
   148    65    66    1
   149    65   145    1
   150    65   146    1
   151    66   147    1
   152    67    68    1
   153    67   148    1
   154    68    70    1
   155    68   149    1
   156    69    70    1
   157    69    73    1
   158    69   150    1
   159    70   151    1
   160    71    72    1
   161    71   152    1
   162    72    74    1
   163    72   156    1
   164    73   157    1
   165    73   158    1
   166    74    76    1
   167    74   160    1
   168    75    76    1
   169    75    77    1
   170    75   162    1
   171    76   163    1
   172    77   165    1
   173    77   166    1
   174    77   167    1
   175    78    80    1
   176    78   168    1
   177    79    81    1
   178    79   170    1
   179    80    82    1
   180    80   171    1
   181    81    85    1
   182    81   172    1
   183    82    84    1
   184    82   173    1
   185    83    84    1
   186    83    88    1
   187    83   174    1
   188    84   175    1
   189    85    87    1
   190    85   176    1
   191    86    87    1
   192    86   178    1
   193    86   179    1
   194    87   180    1
   195    88   181    1
   196    88   182    1
   197    89    90    1
   198    89   188    1
   199    90    91    1
   200    90   189    1
   201    91    93    1
   202    91   190    1
   203    92    93    1
   204    92    94    1
   205    92   191    1
   206    93   192    1
   207    94   194    1
   208    94   195    1
