@<TRIPOS>MOLECULE
IMPHY001531
 33 35 0 0 0
SMALL
GASTEIGER

@<TRIPOS>ATOM
      1 O           6.3981   -0.6154    0.0000 O.2     1  UNL1       -0.4542
      2 O           2.8680   -0.6395    0.0000 O.3     1  UNL1       -0.4949
      3 O           4.6497    2.4192    0.0000 O.3     1  UNL1       -0.5058
      4 O           6.3981    2.3846    0.0000 O.2     1  UNL1       -0.2869
      5 O           7.2641   -2.1154    0.0000 O.3     1  UNL1       -0.5061
      6 C           5.5320    0.8846    0.0000 C.ar    1  UNL1        0.1055
      7 C           5.5320   -0.1154    0.0000 C.ar    1  UNL1        0.1462
      8 C           7.2641   -0.1154    0.0000 C.ar    1  UNL1        0.1427
      9 C           8.1301   -0.6154    0.0000 C.ar    1  UNL1        0.0588
     10 C           6.3981    1.3846    0.0000 C.ar    1  UNL1        0.1966
     11 C           4.6381    1.4193    0.0000 C.ar    1  UNL1        0.1347
     12 C           7.2641    0.8846    0.0000 C.ar    1  UNL1        0.0289
     13 C           4.6381   -0.6501    0.0000 C.ar    1  UNL1        0.0233
     14 C           3.7320   -0.1362    0.0000 C.ar    1  UNL1        0.1271
     15 C           3.7320    0.9054    0.0000 C.ar    1  UNL1        0.0225
     16 C           8.1301   -1.6154    0.0000 C.ar    1  UNL1        0.1275
     17 C           8.9962   -0.1154    0.0000 C.ar    1  UNL1       -0.0476
     18 C           8.9962   -2.1154    0.0000 C.ar    1  UNL1       -0.0195
     19 C           9.8622   -0.6154    0.0000 C.ar    1  UNL1       -0.0609
     20 C           9.8622   -1.6154    0.0000 C.ar    1  UNL1       -0.0583
     21 C           2.0000   -0.1429    0.0000 C.3     1  UNL1        0.0788
     22 H           7.8010    1.1946    0.0000 H       1  UNL1        0.0693
     23 H           4.6453   -1.2700    0.0000 H       1  UNL1        0.0691
     24 H           3.1963    1.2175    0.0000 H       1  UNL1        0.0691
     25 H           8.9962    0.5046    0.0000 H       1  UNL1        0.0626
     26 H           8.9962   -2.7354    0.0000 H       1  UNL1        0.0654
     27 H          10.3991   -0.3054    0.0000 H       1  UNL1        0.0618
     28 H          10.3991   -1.9254    0.0000 H       1  UNL1        0.0619
     29 H           4.1164    2.7354    0.0000 H       1  UNL1        0.2922
     30 H           7.2641   -2.7354    0.0000 H       1  UNL1        0.2922
     31 H           2.3079    0.3952    0.0000 H       1  UNL1        0.0660
     32 H           1.4619    0.1650    0.0000 H       1  UNL1        0.0660
     33 H           1.6921   -0.6810    0.0000 H       1  UNL1        0.0660
@<TRIPOS>BOND
     1     1     7   ar
     2     1     8   ar
     3     2    14    1
     4     2    21    1
     5     3    11    1
     6     3    29    1
     7     4    10    2
     8     5    16    1
     9     5    30    1
    10     6     7   ar
    11     6    10   ar
    12     6    11   ar
    13     7    13   ar
    14     8     9    1
    15     8    12   ar
    16     9    16   ar
    17     9    17   ar
    18    10    12   ar
    19    11    15   ar
    20    12    22    1
    21    13    14   ar
    22    13    23    1
    23    14    15   ar
    24    15    24    1
    25    16    18   ar
    26    17    19   ar
    27    17    25    1
    28    18    20   ar
    29    18    26    1
    30    19    20   ar
    31    19    27    1
    32    20    28    1
    33    21    31    1
    34    21    32    1
    35    21    33    1
