@<TRIPOS>MOLECULE
IMPHY001900
 67 70 0 0 0
SMALL
GASTEIGER

@<TRIPOS>ATOM
      1 O4*         9.7142    4.6523    0.0000 O.3     1  UNL1       -0.3457
      2 O           4.2690   -4.0416    0.0000 O.3     1  UNL1       -0.3405
      3 O2*        11.4200    2.7066    0.0000 O.3     1  UNL1       -0.3847
      4 O3*        12.3014    4.6956    0.0000 O.3     1  UNL1       -0.3864
      5 O           6.0010   -4.0416    0.0000 O.3     1  UNL1       -0.3444
      6 O           4.2690   -7.0416    0.0000 O.3     1  UNL1       -0.3864
      7 O           2.5369   -6.0416    0.0000 O.3     1  UNL1       -0.3865
      8 O           6.0010   -6.0416    0.0000 O.3     1  UNL1       -0.3841
      9 O5*         9.8721    6.7349    0.0000 O.3     1  UNL1       -0.3924
     10 O           2.5369   -3.0416    0.0000 O.3     1  UNL1       -0.3924
     11 N           9.2559    2.9302    0.0000 N.ar    1  UNL1       -0.2855
     12 N           7.8621    2.1255    0.0000 N.ar    1  UNL1       -0.2306
     13 N          10.3312    1.4584    0.0000 N.ar    1  UNL1       -0.2159
     14 N           7.7331   -0.0416    0.0000 N.pl3   1  UNL1       -0.3237
     15 N           9.4651   -0.0416    0.0000 N.ar    1  UNL1       -0.2186
     16 C2*        10.9185    3.5717    0.0000 C.3     1  UNL1        0.1285
     17 C3*        11.3236    4.4860    0.0000 C.3     1  UNL1        0.1135
     18 C1*         9.9238    3.6745    0.0000 C.3     1  UNL1        0.1667
     19 C4*        10.5793    5.1538    0.0000 C.3     1  UNL1        0.1126
     20 C           4.2690   -6.0416    0.0000 C.3     1  UNL1        0.1141
     21 C           3.4030   -5.5416    0.0000 C.3     1  UNL1        0.1119
     22 C           5.1350   -5.5416    0.0000 C.3     1  UNL1        0.1341
     23 C           3.4030   -4.5416    0.0000 C.3     1  UNL1        0.1130
     24 C           5.1350   -4.5416    0.0000 C.3     1  UNL1        0.1883
     25 C5*        10.6821    6.1485    0.0000 C.3     1  UNL1        0.0730
     26 C           2.5369   -4.0416    0.0000 C.3     1  UNL1        0.0730
     27 C           9.4651    1.9584    0.0000 C.ar    1  UNL1        0.1674
     28 C           8.2672    3.0333    0.0000 C.ar    1  UNL1        0.1004
     29 C           8.5991    1.4584    0.0000 C.ar    1  UNL1        0.1475
     30 C           6.0010   -3.0416    0.0000 C.3     1  UNL1        0.0717
     31 C           8.5991    0.4584    0.0000 C.ar    1  UNL1        0.1500
     32 C           6.8671   -2.5416    0.0000 C.2     1  UNL1       -0.0497
     33 C           7.7331   -1.0416    0.0000 C.3     1  UNL1        0.0291
     34 C          10.3312    0.4584    0.0000 C.ar    1  UNL1        0.1205
     35 C           6.8671   -1.5416    0.0000 C.2     1  UNL1       -0.0660
     36 C           7.7331   -3.0416    0.0000 C.3     1  UNL1       -0.0416
     37 H2*        10.5817    3.0511    0.0000 H       1  UNL1        0.0665
     38 H3*        11.4831    5.0851    0.0000 H       1  UNL1        0.0647
     39 H1*        10.1470    3.0961    0.0000 H       1  UNL1        0.0866
     40 H4*        10.0588    5.4906    0.0000 H       1  UNL1        0.0647
     41 H           4.8059   -6.3516    0.0000 H       1  UNL1        0.0648
     42 H           3.4030   -6.1616    0.0000 H       1  UNL1        0.0647
     43 H           5.6720   -5.2316    0.0000 H       1  UNL1        0.0671
     44 H           3.4030   -3.9216    0.0000 H       1  UNL1        0.0647
     45 H           5.1350   -3.9216    0.0000 H       1  UNL1        0.0938
     46 H5*1       11.2784    5.9786    0.0000 H       1  UNL1        0.0584
     47 H5*2       10.9530    6.7062    0.0000 H       1  UNL1        0.0584
     48 H           1.9264   -3.9339    0.0000 H       1  UNL1        0.0584
     49 H           2.3249   -4.6242    0.0000 H       1  UNL1        0.0584
     50 H2*        12.0400    2.7076    0.0000 H       1  UNL1        0.2101
     51 H3*        12.4920    5.2856    0.0000 H       1  UNL1        0.2100
     52 H           7.9572    3.5702    0.0000 H       1  UNL1        0.1030
     53 H           3.7320   -7.3516    0.0000 H       1  UNL1        0.2100
     54 H           2.0000   -5.7316    0.0000 H       1  UNL1        0.2100
     55 H           6.5380   -5.7316    0.0000 H       1  UNL1        0.2101
     56 H           5.7890   -2.4590    0.0000 H       1  UNL1        0.0608
     57 H           5.3905   -3.1493    0.0000 H       1  UNL1        0.0608
     58 H5*         9.9358    7.3516    0.0000 H       1  UNL1        0.2095
     59 H           2.0000   -2.7316    0.0000 H       1  UNL1        0.2095
     60 H           7.1962    0.2684    0.0000 H       1  UNL1        0.1478
     61 H           7.9451   -1.6242    0.0000 H       1  UNL1        0.0505
     62 H           8.3437   -0.9339    0.0000 H       1  UNL1        0.0505
     63 H          10.8681    0.1484    0.0000 H       1  UNL1        0.1048
     64 H           6.3301   -1.2316    0.0000 H       1  UNL1        0.0588
     65 H           7.4231   -3.5785    0.0000 H       1  UNL1        0.0275
     66 H           8.2700   -3.3516    0.0000 H       1  UNL1        0.0275
     67 H           8.0431   -2.5047    0.0000 H       1  UNL1        0.0275
@<TRIPOS>BOND
     1     1    18    1
     2     1    19    1
     3     2    23    1
     4     2    24    1
     5    16     3    1
     6     3    50    1
     7    17     4    1
     8     4    51    1
     9    24     5    1
    10     5    30    1
    11    20     6    1
    12     6    53    1
    13    21     7    1
    14     7    54    1
    15    22     8    1
    16     8    55    1
    17     9    25    1
    18     9    58    1
    19    10    26    1
    20    10    59    1
    21    18    11    1
    22    11    27   ar
    23    11    28   ar
    24    12    28   ar
    25    12    29   ar
    26    13    27   ar
    27    13    34   ar
    28    14    31    1
    29    14    33    1
    30    14    60    1
    31    15    31   ar
    32    15    34   ar
    33    16    17    1
    34    16    18    1
    35    16    37    1
    36    17    19    1
    37    17    38    1
    38    18    39    1
    39    19    25    1
    40    19    40    1
    41    20    21    1
    42    20    22    1
    43    20    41    1
    44    21    23    1
    45    21    42    1
    46    22    24    1
    47    22    43    1
    48    23    26    1
    49    23    44    1
    50    24    45    1
    51    25    46    1
    52    25    47    1
    53    26    48    1
    54    26    49    1
    55    27    29   ar
    56    28    52    1
    57    29    31   ar
    58    30    32    1
    59    30    56    1
    60    30    57    1
    61    32    35    2
    62    32    36    1
    63    33    35    1
    64    33    61    1
    65    33    62    1
    66    34    63    1
    67    35    64    1
    68    36    65    1
    69    36    66    1
    70    36    67    1
