@<TRIPOS>MOLECULE
IMPHY002752
 120 123 0 0 0
SMALL
GASTEIGER

@<TRIPOS>ATOM
      1 O           4.2690  -10.2500    0.0000 O.3     1  UNL1       -0.3405
      2 O          18.1254   10.7500    0.0000 O.3     1  UNL1       -0.3405
      3 O           6.8671   -7.7500    0.0000 O.3     1  UNL1       -0.3397
      4 O          17.2594    7.2500    0.0000 O.3     1  UNL1       -0.3312
      5 O           6.0010  -10.2500    0.0000 O.3     1  UNL1       -0.3460
      6 O          17.2594    9.2500    0.0000 O.3     1  UNL1       -0.3460
      7 O           7.7331  -10.2500    0.0000 O.3     1  UNL1       -0.3864
      8 O          19.8574    7.7500    0.0000 O.3     1  UNL1       -0.3865
      9 O           9.4651   -7.2500    0.0000 O.3     1  UNL1       -0.4504
     10 O           9.4651   -9.2500    0.0000 O.3     1  UNL1       -0.3853
     11 O           6.0010  -12.2500    0.0000 O.3     1  UNL1       -0.3841
     12 O           4.2690  -13.2500    0.0000 O.3     1  UNL1       -0.3864
     13 O          15.5273   10.2500    0.0000 O.3     1  UNL1       -0.3841
     14 O          15.5273   12.2500    0.0000 O.3     1  UNL1       -0.3864
     15 O          19.8574    5.7500    0.0000 O.3     1  UNL1       -0.3864
     16 O           2.5369  -12.2500    0.0000 O.3     1  UNL1       -0.3865
     17 O          17.2594   13.2500    0.0000 O.3     1  UNL1       -0.3865
     18 O          18.1254    4.7500    0.0000 O.3     1  UNL1       -0.3829
     19 O          16.3933    5.7500    0.0000 O.3     1  UNL1       -0.4292
     20 O           7.7331   -6.2500    0.0000 O.3     1  UNL1       -0.3641
     21 O           2.5369   -9.2500    0.0000 O.3     1  UNL1       -0.3924
     22 O          18.9914   13.2500    0.0000 O.3     1  UNL1       -0.3924
     23 O           8.5991   -5.7500    0.0000 O.2     1  UNL1       -0.2456
     24 O          17.2594    4.2500    0.0000 O.2     1  UNL1       -0.2455
     25 C           6.8671   -8.7500    0.0000 C.3     1  UNL1        0.1134
     26 C          18.1254    7.7500    0.0000 C.3     1  UNL1        0.1144
     27 C           7.7331   -9.2500    0.0000 C.3     1  UNL1        0.1130
     28 C          18.9914    7.2500    0.0000 C.3     1  UNL1        0.1120
     29 C           8.5991   -8.7500    0.0000 C.3     1  UNL1        0.1251
     30 C           5.1350  -11.7500    0.0000 C.3     1  UNL1        0.1341
     31 C           4.2690  -12.2500    0.0000 C.3     1  UNL1        0.1141
     32 C          16.3933   10.7500    0.0000 C.3     1  UNL1        0.1341
     33 C          16.3933   11.7500    0.0000 C.3     1  UNL1        0.1141
     34 C           5.1350  -10.7500    0.0000 C.3     1  UNL1        0.1880
     35 C          17.2594   10.2500    0.0000 C.3     1  UNL1        0.1880
     36 C          18.9914    6.2500    0.0000 C.3     1  UNL1        0.1152
     37 C           3.4030  -11.7500    0.0000 C.3     1  UNL1        0.1119
     38 C          17.2594   12.2500    0.0000 C.3     1  UNL1        0.1119
     39 C           3.4030  -10.7500    0.0000 C.3     1  UNL1        0.1130
     40 C           8.5991   -7.7500    0.0000 C.3     1  UNL1        0.1817
     41 C          18.1254   11.7500    0.0000 C.3     1  UNL1        0.1130
     42 C          18.1254    5.7500    0.0000 C.3     1  UNL1        0.1455
     43 C           6.0010   -9.2500    0.0000 C.3     1  UNL1        0.0796
     44 C          18.1254    8.7500    0.0000 C.3     1  UNL1        0.0796
     45 C           7.7331   -7.2500    0.0000 C.3     1  UNL1        0.1968
     46 C          17.2594    6.2500    0.0000 C.3     1  UNL1        0.2340
     47 C           2.5369  -10.2500    0.0000 C.3     1  UNL1        0.0730
     48 C          18.9914   12.2500    0.0000 C.3     1  UNL1        0.0730
     49 C           9.4651   -6.2500    0.0000 C.2     1  UNL1        0.3324
     50 C          16.3933    4.7500    0.0000 C.2     1  UNL1        0.3342
     51 C          10.3312   -5.7500    0.0000 C.2     1  UNL1        0.0225
     52 C          15.5273    4.2500    0.0000 C.2     1  UNL1        0.0226
     53 C          10.3312   -4.7500    0.0000 C.2     1  UNL1       -0.0550
     54 C          15.5273    3.2500    0.0000 C.2     1  UNL1       -0.0550
     55 C          11.1972   -4.2500    0.0000 C.2     1  UNL1       -0.0615
     56 C          14.6613    2.7500    0.0000 C.2     1  UNL1       -0.0615
     57 C          11.1972   -3.2500    0.0000 C.2     1  UNL1       -0.0618
     58 C          14.6613    1.7500    0.0000 C.2     1  UNL1       -0.0618
     59 C          12.0632   -2.7500    0.0000 C.2     1  UNL1       -0.0618
     60 C          13.7953    1.2500    0.0000 C.2     1  UNL1       -0.0618
     61 C          12.0632   -1.7500    0.0000 C.2     1  UNL1       -0.0618
     62 C          13.7953    0.2500    0.0000 C.2     1  UNL1       -0.0618
     63 C          12.9292   -1.2500    0.0000 C.2     1  UNL1       -0.0618
     64 C          12.9292   -0.2500    0.0000 C.2     1  UNL1       -0.0618
     65 H           6.3301   -8.4400    0.0000 H       1  UNL1        0.0647
     66 H          17.5885    8.0600    0.0000 H       1  UNL1        0.0647
     67 H           8.2700   -9.5600    0.0000 H       1  UNL1        0.0647
     68 H          19.5284    6.9400    0.0000 H       1  UNL1        0.0647
     69 H           9.1360   -8.4400    0.0000 H       1  UNL1        0.0659
     70 H           5.1350  -12.3700    0.0000 H       1  UNL1        0.0671
     71 H           3.7320  -12.5600    0.0000 H       1  UNL1        0.0648
     72 H          16.3933   10.1300    0.0000 H       1  UNL1        0.0671
     73 H          15.8564   11.4400    0.0000 H       1  UNL1        0.0648
     74 H           5.1350  -10.1300    0.0000 H       1  UNL1        0.0937
     75 H          17.7963    9.9400    0.0000 H       1  UNL1        0.0937
     76 H          18.9914    5.6300    0.0000 H       1  UNL1        0.0648
     77 H           2.8660  -11.4400    0.0000 H       1  UNL1        0.0647
     78 H          17.7963   12.5600    0.0000 H       1  UNL1        0.0647
     79 H           3.4030  -10.1300    0.0000 H       1  UNL1        0.0647
     80 H           8.5991   -7.1300    0.0000 H       1  UNL1        0.0813
     81 H          18.6623   11.4400    0.0000 H       1  UNL1        0.0647
     82 H          17.5885    5.4400    0.0000 H       1  UNL1        0.0683
     83 H           5.7890   -8.6674    0.0000 H       1  UNL1        0.0587
     84 H           5.3905   -9.3577    0.0000 H       1  UNL1        0.0587
     85 H          18.7360    8.6423    0.0000 H       1  UNL1        0.0587
     86 H          18.3374    9.3326    0.0000 H       1  UNL1        0.0587
     87 H           7.1962   -6.9400    0.0000 H       1  UNL1        0.0947
     88 H          16.7224    6.5600    0.0000 H       1  UNL1        0.1085
     89 H           1.9264  -10.1423    0.0000 H       1  UNL1        0.0584
     90 H           2.3249  -10.8326    0.0000 H       1  UNL1        0.0584
     91 H          19.2035   11.6674    0.0000 H       1  UNL1        0.0584
     92 H          19.6020   12.3577    0.0000 H       1  UNL1        0.0584
     93 H           8.2700  -10.5600    0.0000 H       1  UNL1        0.2100
     94 H          19.8574    8.3700    0.0000 H       1  UNL1        0.2100
     95 H           9.4651   -9.8700    0.0000 H       1  UNL1        0.2101
     96 H           6.5380  -11.9400    0.0000 H       1  UNL1        0.2101
     97 H           3.7320  -13.5600    0.0000 H       1  UNL1        0.2100
     98 H          14.9904   10.5600    0.0000 H       1  UNL1        0.2101
     99 H          15.5273   12.8700    0.0000 H       1  UNL1        0.2100
    100 H          20.3944    6.0600    0.0000 H       1  UNL1        0.2100
    101 H           2.0000  -11.9400    0.0000 H       1  UNL1        0.2100
    102 H          16.7224   13.5600    0.0000 H       1  UNL1        0.2100
    103 H          18.6623    4.4400    0.0000 H       1  UNL1        0.2102
    104 H           7.1962   -5.9400    0.0000 H       1  UNL1        0.2126
    105 H           2.0000   -8.9400    0.0000 H       1  UNL1        0.2095
    106 H          19.5284   13.5600    0.0000 H       1  UNL1        0.2095
    107 H          10.8681   -6.0600    0.0000 H       1  UNL1        0.0689
    108 H          14.9904    4.5600    0.0000 H       1  UNL1        0.0689
    109 H           9.7942   -4.4400    0.0000 H       1  UNL1        0.0620
    110 H          16.0643    2.9400    0.0000 H       1  UNL1        0.0620
    111 H          11.7341   -4.5600    0.0000 H       1  UNL1        0.0618
    112 H          14.1244    3.0600    0.0000 H       1  UNL1        0.0618
    113 H          10.6603   -2.9400    0.0000 H       1  UNL1        0.0618
    114 H          15.1982    1.4400    0.0000 H       1  UNL1        0.0618
    115 H          12.6002   -3.0600    0.0000 H       1  UNL1        0.0618
    116 H          13.2583    1.5600    0.0000 H       1  UNL1        0.0618
    117 H          11.5263   -1.4400    0.0000 H       1  UNL1        0.0618
    118 H          14.3322   -0.0600    0.0000 H       1  UNL1        0.0618
    119 H          13.4662   -1.5600    0.0000 H       1  UNL1        0.0618
    120 H          12.3923    0.0600    0.0000 H       1  UNL1        0.0618
@<TRIPOS>BOND
     1     1    34    1
     2     1    39    1
     3     2    35    1
     4     2    41    1
     5     3    25    1
     6     3    45    1
     7     4    26    1
     8     4    46    1
     9    34     5    1
    10     5    43    1
    11    35     6    1
    12     6    44    1
    13    27     7    1
    14     7    93    1
    15    28     8    1
    16     8    94    1
    17    40     9    1
    18     9    49    1
    19    29    10    1
    20    10    95    1
    21    30    11    1
    22    11    96    1
    23    31    12    1
    24    12    97    1
    25    32    13    1
    26    13    98    1
    27    33    14    1
    28    14    99    1
    29    36    15    1
    30    15   100    1
    31    37    16    1
    32    16   101    1
    33    38    17    1
    34    17   102    1
    35    42    18    1
    36    18   103    1
    37    46    19    1
    38    19    50    1
    39    20    45    1
    40    20   104    1
    41    21    47    1
    42    21   105    1
    43    22    48    1
    44    22   106    1
    45    23    49    2
    46    24    50    2
    47    25    27    1
    48    25    43    1
    49    25    65    1
    50    26    28    1
    51    26    44    1
    52    26    66    1
    53    27    29    1
    54    27    67    1
    55    28    36    1
    56    28    68    1
    57    29    40    1
    58    29    69    1
    59    30    31    1
    60    30    34    1
    61    30    70    1
    62    31    37    1
    63    31    71    1
    64    32    33    1
    65    32    35    1
    66    32    72    1
    67    33    38    1
    68    33    73    1
    69    34    74    1
    70    35    75    1
    71    36    42    1
    72    36    76    1
    73    37    39    1
    74    37    77    1
    75    38    41    1
    76    38    78    1
    77    39    47    1
    78    39    79    1
    79    40    45    1
    80    40    80    1
    81    41    48    1
    82    41    81    1
    83    42    46    1
    84    42    82    1
    85    43    83    1
    86    43    84    1
    87    44    85    1
    88    44    86    1
    89    45    87    1
    90    46    88    1
    91    47    89    1
    92    47    90    1
    93    48    91    1
    94    48    92    1
    95    49    51    1
    96    50    52    1
    97    51    53    2
    98    51   107    1
    99    52    54    2
   100    52   108    1
   101    53    55    1
   102    53   109    1
   103    54    56    1
   104    54   110    1
   105    55    57    2
   106    55   111    1
   107    56    58    2
   108    56   112    1
   109    57    59    1
   110    57   113    1
   111    58    60    1
   112    58   114    1
   113    59    61    2
   114    59   115    1
   115    60    62    2
   116    60   116    1
   117    61    63    1
   118    61   117    1
   119    62    64    1
   120    62   118    1
   121    63    64    2
   122    63   119    1
   123    64   120    1
