@<TRIPOS>MOLECULE
IMPHY016346
 28 27 0 0 0
SMALL
GASTEIGER

@<TRIPOS>ATOM
      1 C           5.4641   -0.2500    0.0000 C.3     1  UNL1       -0.0493
      2 C           6.3301    0.2500    0.0000 C.3     1  UNL1       -0.0493
      3 C           4.5981    0.2500    0.0000 C.3     1  UNL1       -0.0348
      4 C           7.1962   -0.2500    0.0000 C.3     1  UNL1       -0.0348
      5 C           3.7320   -0.2500    0.0000 C.2     1  UNL1       -0.0882
      6 C           8.0622    0.2500    0.0000 C.2     1  UNL1       -0.0882
      7 C           2.8660    0.2500    0.0000 C.2     1  UNL1       -0.0910
      8 C           8.9282   -0.2500    0.0000 C.2     1  UNL1       -0.0910
      9 C           2.0000   -0.2500    0.0000 C.3     1  UNL1       -0.0468
     10 C           9.7942    0.2500    0.0000 C.3     1  UNL1       -0.0468
     11 H           5.0656   -0.7249    0.0000 H       1  UNL1        0.0268
     12 H           5.8626   -0.7249    0.0000 H       1  UNL1        0.0268
     13 H           6.7287    0.7249    0.0000 H       1  UNL1        0.0268
     14 H           5.9316    0.7249    0.0000 H       1  UNL1        0.0268
     15 H           4.9966    0.7249    0.0000 H       1  UNL1        0.0307
     16 H           4.1996    0.7249    0.0000 H       1  UNL1        0.0307
     17 H           6.7976   -0.7249    0.0000 H       1  UNL1        0.0307
     18 H           7.5947   -0.7249    0.0000 H       1  UNL1        0.0307
     19 H           3.7320   -0.8700    0.0000 H       1  UNL1        0.0569
     20 H           8.0622    0.8700    0.0000 H       1  UNL1        0.0569
     21 H           2.8660    0.8700    0.0000 H       1  UNL1        0.0566
     22 H           8.9282   -0.8700    0.0000 H       1  UNL1        0.0566
     23 H           1.6900    0.2869    0.0000 H       1  UNL1        0.0272
     24 H           1.4631   -0.5600    0.0000 H       1  UNL1        0.0272
     25 H           2.3100   -0.7869    0.0000 H       1  UNL1        0.0272
     26 H          10.1042   -0.2869    0.0000 H       1  UNL1        0.0272
     27 H          10.3312    0.5600    0.0000 H       1  UNL1        0.0272
     28 H           9.4842    0.7869    0.0000 H       1  UNL1        0.0272
@<TRIPOS>BOND
     1     1     2    1
     2     1     3    1
     3     1    11    1
     4     1    12    1
     5     2     4    1
     6     2    13    1
     7     2    14    1
     8     3     5    1
     9     3    15    1
    10     3    16    1
    11     4     6    1
    12     4    17    1
    13     4    18    1
    14     5     7    2
    15     5    19    1
    16     6     8    2
    17     6    20    1
    18     7     9    1
    19     7    21    1
    20     8    10    1
    21     8    22    1
    22     9    23    1
    23     9    24    1
    24     9    25    1
    25    10    26    1
    26    10    27    1
    27    10    28    1
