@<TRIPOS>MOLECULE
IMPHY006136
 15 15 0 0 0
SMALL
GASTEIGER

@<TRIPOS>ATOM
      1 N           4.5981   -1.0000    0.0000 N.ar    1  UNL1       -0.2556
      2 C           3.7320   -0.5000    0.0000 C.ar    1  UNL1        0.0633
      3 C           3.7320    0.5000    0.0000 C.ar    1  UNL1       -0.0363
      4 C           4.5981    1.0000    0.0000 C.ar    1  UNL1       -0.0583
      5 C           5.4641    0.5000    0.0000 C.ar    1  UNL1       -0.0436
      6 C           5.4641   -0.5000    0.0000 C.ar    1  UNL1        0.0282
      7 C           2.8660   -1.0000    0.0000 C.2     1  UNL1       -0.0434
      8 C           2.0000   -0.5000    0.0000 C.2     1  UNL1       -0.0967
      9 H           3.1951    0.8100    0.0000 H       1  UNL1        0.0639
     10 H           4.5981    1.6200    0.0000 H       1  UNL1        0.0619
     11 H           6.0010    0.8100    0.0000 H       1  UNL1        0.0633
     12 H           6.0010   -0.8100    0.0000 H       1  UNL1        0.0830
     13 H           2.8660   -1.6200    0.0000 H       1  UNL1        0.0633
     14 H           2.0000    0.1200    0.0000 H       1  UNL1        0.0535
     15 H           1.4631   -0.8100    0.0000 H       1  UNL1        0.0535
@<TRIPOS>BOND
     1     1     2   ar
     2     1     6   ar
     3     2     3   ar
     4     2     7    1
     5     3     4   ar
     6     3     9    1
     7     4     5   ar
     8     4    10    1
     9     5     6   ar
    10     5    11    1
    11     6    12    1
    12     7     8    2
    13     7    13    1
    14     8    14    1
    15     8    15    1
