@<TRIPOS>MOLECULE
IMPHY007769
 139 146 0 0 0
SMALL
GASTEIGER

@<TRIPOS>ATOM
      1 O          10.3312   -1.9767    0.0000 O.3     1  UNL1       -0.3449
      2 O          12.0850    7.3028    0.0000 O.3     1  UNL1       -0.4802
      3 O          12.9683    5.8129    0.0000 O.2     1  UNL1       -0.2504
      4 O           8.5991   -1.9767    0.0000 O.3     1  UNL1       -0.3315
      5 O          10.3312   -3.9767    0.0000 O.3     1  UNL1       -0.3841
      6 O           8.5991   -4.9767    0.0000 O.3     1  UNL1       -0.3864
      7 O           6.8671   -3.9767    0.0000 O.3     1  UNL1       -0.3396
      8 O           6.8671   -0.9767    0.0000 O.3     1  UNL1       -0.4304
      9 O           6.0010   -2.4767    0.0000 O.2     1  UNL1       -0.2477
     10 O           7.6761   -5.5645    0.0000 O.3     1  UNL1       -0.3405
     11 O           5.1070   -5.2554    0.0000 O.3     1  UNL1       -0.3841
     12 O           5.1350   -0.9767    0.0000 O.3     1  UNL1       -0.3312
     13 O           5.7793   -7.3245    0.0000 O.3     1  UNL1       -0.3864
     14 O           6.8671    1.0233    0.0000 O.3     1  UNL1       -0.3829
     15 O           8.9494   -7.2200    0.0000 O.3     1  UNL1       -0.3924
     16 O           5.1350    2.0233    0.0000 O.3     1  UNL1       -0.3864
     17 O           3.4030    1.0233    0.0000 O.3     1  UNL1       -0.3865
     18 O           2.5369   -0.4767    0.0000 O.3     1  UNL1       -0.3924
     19 C          11.2322    2.7236    0.0000 C.3     1  UNL1       -0.0194
     20 C          10.3681    2.2202    0.0000 C.3     1  UNL1       -0.0257
     21 C          10.3561    1.1786    0.0000 C.3     1  UNL1       -0.0250
     22 C          11.2284    3.7235    0.0000 C.3     1  UNL1       -0.0051
     23 C          11.2562    0.6544    0.0000 C.3     1  UNL1       -0.0278
     24 C          12.1442    2.2202    0.0000 C.3     1  UNL1       -0.0463
     25 C          11.2687   -0.4306    0.0000 C.3     1  UNL1       -0.0052
     26 C          12.1562    1.1786    0.0000 C.3     1  UNL1       -0.0486
     27 C          10.3604    4.2202    0.0000 C.2     1  UNL1       -0.0629
     28 C           9.5002    2.7169    0.0000 C.3     1  UNL1       -0.0306
     29 C           9.4062    0.6544    0.0000 C.3     1  UNL1       -0.0447
     30 C          10.3404    5.2616    0.0000 C.3     1  UNL1       -0.0031
     31 C          12.1364    4.2339    0.0000 C.3     1  UNL1       -0.0424
     32 C          11.2363    5.7928    0.0000 C.3     1  UNL1        0.0741
     33 C          12.2164    2.9010    0.0000 C.3     1  UNL1       -0.0585
     34 C          10.3312   -0.9767    0.0000 C.3     1  UNL1        0.0672
     35 C          12.1404    5.2755    0.0000 C.3     1  UNL1       -0.0359
     36 C           9.4920    1.6820    0.0000 C.3     1  UNL1       -0.0590
     37 C           9.3936   -0.4306    0.0000 C.3     1  UNL1       -0.0255
     38 C           9.4963    3.7169    0.0000 C.2     1  UNL1       -0.0836
     39 C          12.2138    3.5537    0.0000 C.3     1  UNL1       -0.0553
     40 C           9.3864    5.7786    0.0000 C.3     1  UNL1       -0.0403
     41 C          11.2405    6.8778    0.0000 C.3     1  UNL1       -0.0362
     42 C           9.3655    6.8634    0.0000 C.3     1  UNL1       -0.0343
     43 C          12.2687   -0.4228    0.0000 C.3     1  UNL1       -0.0572
     44 C          11.7754   -1.2927    0.0000 C.3     1  UNL1       -0.0572
     45 C          10.2988    7.4167    0.0000 C.3     1  UNL1       -0.0468
     46 C          12.0965    6.3028    0.0000 C.2     1  UNL1        0.3115
     47 C           8.8522    7.7216    0.0000 C.3     1  UNL1       -0.0598
     48 C           8.3656    6.8480    0.0000 C.3     1  UNL1       -0.0598
     49 C           9.4651   -2.4767    0.0000 C.3     1  UNL1        0.1888
     50 C           9.4651   -3.4767    0.0000 C.3     1  UNL1        0.1342
     51 C           8.5991   -3.9767    0.0000 C.3     1  UNL1        0.1149
     52 C           7.7331   -2.4767    0.0000 C.3     1  UNL1        0.1865
     53 C           7.7331   -3.4767    0.0000 C.3     1  UNL1        0.1267
     54 C           6.8671   -1.9767    0.0000 C.2     1  UNL1        0.3413
     55 C           6.8671   -4.9767    0.0000 C.3     1  UNL1        0.1885
     56 C           6.0580   -5.5645    0.0000 C.3     1  UNL1        0.1341
     57 C           6.3671   -6.5155    0.0000 C.3     1  UNL1        0.1141
     58 C           6.0010   -0.4767    0.0000 C.3     1  UNL1        0.2338
     59 C           7.3671   -6.5155    0.0000 C.3     1  UNL1        0.1131
     60 C           6.0010    0.5233    0.0000 C.3     1  UNL1        0.1455
     61 C           7.9548   -7.3245    0.0000 C.3     1  UNL1        0.0730
     62 C           5.1350    1.0233    0.0000 C.3     1  UNL1        0.1152
     63 C           4.2690   -0.4767    0.0000 C.3     1  UNL1        0.1140
     64 C           4.2690    0.5233    0.0000 C.3     1  UNL1        0.1120
     65 C           3.4030   -0.9767    0.0000 C.3     1  UNL1        0.0731
     66 H          11.1026    1.7924    0.0000 H       1  UNL1        0.0315
     67 H          11.9955    0.2351    0.0000 H       1  UNL1        0.0312
     68 H          12.7562    2.1212    0.0000 H       1  UNL1        0.0271
     69 H          12.3465    2.8063    0.0000 H       1  UNL1        0.0271
     70 H          12.3720    0.5974    0.0000 H       1  UNL1        0.0268
     71 H          12.7658    1.2918    0.0000 H       1  UNL1        0.0268
     72 H           8.8892    2.8222    0.0000 H       1  UNL1        0.0310
     73 H           9.2904    2.1334    0.0000 H       1  UNL1        0.0310
     74 H           9.2039    1.2404    0.0000 H       1  UNL1        0.0271
     75 H           8.7941    0.5553    0.0000 H       1  UNL1        0.0271
     76 H           9.6142    4.8197    0.0000 H       1  UNL1        0.0357
     77 H          12.3432    3.6494    0.0000 H       1  UNL1        0.0274
     78 H          12.7477    4.3376    0.0000 H       1  UNL1        0.0274
     79 H          12.3264    2.2908    0.0000 H       1  UNL1        0.0235
     80 H          12.8265    3.0110    0.0000 H       1  UNL1        0.0235
     81 H          12.1063    3.5112    0.0000 H       1  UNL1        0.0235
     82 H          10.8687   -1.2856    0.0000 H       1  UNL1        0.0602
     83 H          12.7509    5.1671    0.0000 H       1  UNL1        0.0276
     84 H          12.3517    5.8584    0.0000 H       1  UNL1        0.0276
     85 H           9.8041    2.2177    0.0000 H       1  UNL1        0.0235
     86 H           8.9563    1.9940    0.0000 H       1  UNL1        0.0235
     87 H           9.1799    1.1462    0.0000 H       1  UNL1        0.0235
     88 H           8.7840   -0.3174    0.0000 H       1  UNL1        0.0290
     89 H           9.1778   -1.0118    0.0000 H       1  UNL1        0.0290
     90 H           8.9582    4.0248    0.0000 H       1  UNL1        0.0572
     91 H          12.1085    2.9427    0.0000 H       1  UNL1        0.0238
     92 H          12.8248    3.4484    0.0000 H       1  UNL1        0.0238
     93 H          12.3191    4.1647    0.0000 H       1  UNL1        0.0238
     94 H           8.7736    5.8729    0.0000 H       1  UNL1        0.0276
     95 H           9.1887    5.1910    0.0000 H       1  UNL1        0.0276
     96 H          11.8510    6.7694    0.0000 H       1  UNL1        0.0276
     97 H          11.4518    7.4607    0.0000 H       1  UNL1        0.0276
     98 H          11.2408   -1.6068    0.0000 H       1  UNL1        0.0236
     99 H          12.0895   -1.8272    0.0000 H       1  UNL1        0.0236
    100 H          12.3099   -0.9786    0.0000 H       1  UNL1        0.0236
    101 H          12.2734   -1.0428    0.0000 H       1  UNL1        0.0236
    102 H          12.8887   -0.4181    0.0000 H       1  UNL1        0.0236
    103 H          12.2639    0.1971    0.0000 H       1  UNL1        0.0236
    104 H          10.6943    7.8942    0.0000 H       1  UNL1        0.0271
    105 H           9.8960    7.8880    0.0000 H       1  UNL1        0.0271
    106 H           9.3843    8.0398    0.0000 H       1  UNL1        0.0235
    107 H           8.5340    8.2537    0.0000 H       1  UNL1        0.0235
    108 H           8.3201    7.4034    0.0000 H       1  UNL1        0.0235
    109 H           8.3561    7.4679    0.0000 H       1  UNL1        0.0235
    110 H           7.7457    6.8384    0.0000 H       1  UNL1        0.0235
    111 H           8.3752    6.2280    0.0000 H       1  UNL1        0.0235
    112 H          10.0021   -2.7867    0.0000 H       1  UNL1        0.0938
    113 H          12.6183    7.6190    0.0000 H       1  UNL1        0.2951
    114 H           9.4651   -4.0967    0.0000 H       1  UNL1        0.0671
    115 H           8.0622   -4.2867    0.0000 H       1  UNL1        0.0648
    116 H           7.7331   -1.8567    0.0000 H       1  UNL1        0.0742
    117 H           7.1962   -3.1667    0.0000 H       1  UNL1        0.0655
    118 H          10.8681   -3.6667    0.0000 H       1  UNL1        0.2101
    119 H           9.1360   -5.2867    0.0000 H       1  UNL1        0.2100
    120 H           6.3146   -4.6952    0.0000 H       1  UNL1        0.0938
    121 H           5.9611   -4.9521    0.0000 H       1  UNL1        0.0671
    122 H           5.7547   -6.4185    0.0000 H       1  UNL1        0.0648
    123 H           6.5380   -0.1667    0.0000 H       1  UNL1        0.1085
    124 H           7.9794   -6.4185    0.0000 H       1  UNL1        0.0647
    125 H           6.0010    1.1433    0.0000 H       1  UNL1        0.0683
    126 H           4.6462   -5.6703    0.0000 H       1  UNL1        0.2101
    127 H           7.3976   -7.5963    0.0000 H       1  UNL1        0.0584
    128 H           8.1257   -7.9205    0.0000 H       1  UNL1        0.0584
    129 H           4.5981    1.3333    0.0000 H       1  UNL1        0.0648
    130 H           5.1627   -7.2597    0.0000 H       1  UNL1        0.2100
    131 H           4.2690   -1.0967    0.0000 H       1  UNL1        0.0647
    132 H           4.8311    1.1433    0.0000 H       1  UNL1        0.0647
    133 H           6.8671    1.6433    0.0000 H       1  UNL1        0.2102
    134 H           3.0044   -1.4516    0.0000 H       1  UNL1        0.0584
    135 H           3.8015   -1.4516    0.0000 H       1  UNL1        0.0584
    136 H           9.3138   -7.7216    0.0000 H       1  UNL1        0.2095
    137 H           4.5981    2.3333    0.0000 H       1  UNL1        0.2100
    138 H           3.4030    1.6433    0.0000 H       1  UNL1        0.2100
    139 H           2.0000   -0.7867    0.0000 H       1  UNL1        0.2095
@<TRIPOS>BOND
     1    34     1    1
     2    49     1    1
     3     2    46    1
     4     2   113    1
     5     3    46    2
     6     4    49    1
     7     4    52    1
     8    50     5    1
     9     5   118    1
    10    51     6    1
    11     6   119    1
    12    53     7    1
    13    55     7    1
    14     8    54    1
    15    58     8    1
    16     9    54    2
    17    10    55    1
    18    10    59    1
    19    56    11    1
    20    11   126    1
    21    12    58    1
    22    12    63    1
    23    57    13    1
    24    13   130    1
    25    60    14    1
    26    14   133    1
    27    15    61    1
    28    15   136    1
    29    62    16    1
    30    16   137    1
    31    64    17    1
    32    17   138    1
    33    18    65    1
    34    18   139    1
    35    19    20    1
    36    19    22    1
    37    19    24    1
    38    19    33    1
    39    20    21    1
    40    20    28    1
    41    20    66    1
    42    21    23    1
    43    21    29    1
    44    21    36    1
    45    22    27    1
    46    22    31    1
    47    22    39    1
    48    23    25    1
    49    23    26    1
    50    23    67    1
    51    24    26    1
    52    24    68    1
    53    24    69    1
    54    25    34    1
    55    25    43    1
    56    25    44    1
    57    26    70    1
    58    26    71    1
    59    27    30    1
    60    27    38    2
    61    28    38    1
    62    28    72    1
    63    28    73    1
    64    29    37    1
    65    29    74    1
    66    29    75    1
    67    30    32    1
    68    30    40    1
    69    30    76    1
    70    31    35    1
    71    31    77    1
    72    31    78    1
    73    32    35    1
    74    32    41    1
    75    32    46    1
    76    33    79    1
    77    33    80    1
    78    33    81    1
    79    34    37    1
    80    34    82    1
    81    35    83    1
    82    35    84    1
    83    36    85    1
    84    36    86    1
    85    36    87    1
    86    37    88    1
    87    37    89    1
    88    38    90    1
    89    39    91    1
    90    39    92    1
    91    39    93    1
    92    40    42    1
    93    40    94    1
    94    40    95    1
    95    41    45    1
    96    41    96    1
    97    41    97    1
    98    42    45    1
    99    42    47    1
   100    42    48    1
   101    43   101    1
   102    43   102    1
   103    43   103    1
   104    44    98    1
   105    44    99    1
   106    44   100    1
   107    45   104    1
   108    45   105    1
   109    47   106    1
   110    47   107    1
   111    47   108    1
   112    48   109    1
   113    48   110    1
   114    48   111    1
   115    49    50    1
   116    49   112    1
   117    50    51    1
   118    50   114    1
   119    51    53    1
   120    51   115    1
   121    52    53    1
   122    52    54    1
   123    52   116    1
   124    53   117    1
   125    55    56    1
   126    55   120    1
   127    56    57    1
   128    56   121    1
   129    57    59    1
   130    57   122    1
   131    58    60    1
   132    58   123    1
   133    59    61    1
   134    59   124    1
   135    60    62    1
   136    60   125    1
   137    61   127    1
   138    61   128    1
   139    62    64    1
   140    62   129    1
   141    63    64    1
   142    63    65    1
   143    63   131    1
   144    64   132    1
   145    65   134    1
   146    65   135    1
