@<TRIPOS>MOLECULE
IMPHY010642
 42 46 0 0 0
SMALL
GASTEIGER

@<TRIPOS>ATOM
      1 C          -0.3143    0.9606    0.0000 C.ar    1  UNL1        0.0015
      2 C           1.3429    1.4971    0.0000 C.ar    1  UNL1        0.0813
      3 C           0.3605    1.7075    0.0000 C.ar    1  UNL1        0.0191
      4 C           1.6513    0.5386    0.0000 C.ar    1  UNL1        0.0192
      5 C           0.0000    0.0000    0.0000 C.ar    1  UNL1        0.0001
      6 C           0.9816   -0.2059    0.0000 C.ar    1  UNL1        0.0015
      7 C           2.6563    0.5386    0.0000 C.ar    1  UNL1        0.0220
      8 N           2.1552    2.0893    0.0000 N.ar    1  UNL1       -0.2442
      9 C           2.9705    1.4970    0.0000 C.ar    1  UNL1        0.0948
     10 C           3.9487    1.7045    0.0000 C.ar    1  UNL1        0.0771
     11 N           4.6201    0.9615    0.0000 N.ar    1  UNL1       -0.2415
     12 C           3.3258   -0.2052    0.0000 C.ar    1  UNL1        0.0274
     13 CA          4.3095    0.0013    0.0000 C.ar    1  UNL1        0.1605
     14 C           4.9782   -0.7422    0.0000 C.2     1  UNL1        0.4051
     15 OXT         4.6686   -1.6931    0.0000 O.co2   1  UNL1       -0.2389
     16 O           5.9565   -0.5349    0.0000 O.co2   1  UNL1       -0.2389
     17 C           4.2571    2.6558    0.0000 C.3     1  UNL1        0.0526
     18 C           5.2351    2.8643    0.0000 C.3     1  UNL1        0.0479
     19 C           5.9026    2.1197    0.0000 C.3     1  UNL1        0.0970
     20 C           6.8857    2.3294    0.0000 C.3     1  UNL1        0.2935
     21 O           7.2013    3.2837    0.0000 O.2     1  UNL1       -0.4492
     22 C           6.5238    4.0262    0.0000 C.2     1  UNL1        0.1771
     23 C           5.5407    3.8165    0.0000 C.2     1  UNL1        0.0909
     24 C           4.8700    4.5583    0.0000 C.2     1  UNL1        0.3404
     25 O           5.1770    5.5100    0.0000 O.3     1  UNL1       -0.4415
     26 C           4.5062    6.2517    0.0000 C.3     1  UNL1        0.2559
     27 O           3.8923    4.3483    0.0000 O.2     1  UNL1       -0.2451
     28 C           5.5928    1.1689    0.0000 C.2     1  UNL1       -0.0199
     29 C           6.2614    0.4252    0.0000 C.2     1  UNL1       -0.0047
     30 O           7.5531    1.5847    0.0000 O.3     1  UNL1       -0.3009
     31 C           8.5317    1.7904    0.0000 C.3     1  UNL1        0.2027
     32 C           9.3833    2.3245    0.0000 C.3     1  UNL1        0.2318
     33 C          10.2657    1.8539    0.0000 C.3     1  UNL1        0.2193
     34 C          10.2657    0.8547    0.0000 C.3     1  UNL1        0.2144
     35 C           9.4536    0.3206    0.0000 C.3     1  UNL1        0.1830
     36 O           8.5317    0.7857    0.0000 O.3     1  UNL1       -0.3320
     37 C           9.4536   -0.6786    0.0000 C.3     1  UNL1        0.2142
     38 O          10.3782   -1.1440    0.0000 O.3     1  UNL1       -0.2176
     39 O          11.1896    0.3879    0.0000 O.3     1  UNL1       -0.2176
     40 O          11.1129    2.3852    0.0000 O.3     1  UNL1       -0.2174
     41 O           9.3833    3.3239    0.0000 O.3     1  UNL1       -0.2154
     42 H           8.1574    2.7177    0.0000 H       1  UNL1        0.0945
@<TRIPOS>BOND
     1     1     5   ar
     2     1     3   ar
     3     2     3   ar
     4     2     4   ar
     5     2     8   ar
     6     4     6   ar
     7     4     7   ar
     8     5     6   ar
     9     7     9   ar
    10     7    12   ar
    11     8     9   ar
    12     9    10   ar
    13    10    11   ar
    14    10    17    1
    15    11    13   ar
    16    12    13   ar
    17    13    14    1
    18    14    16   ar
    19    14    15   ar
    20    17    18    1
    21    18    23    1
    22    18    19    1
    23    19    20    1
    24    19    28    1
    25    20    21    1
    26    20    30    1
    27    21    22    1
    28    22    23    2
    29    23    24    1
    30    24    27    2
    31    24    25    1
    32    25    26    1
    33    28    29    2
    34    30    31    1
    35    31    36    1
    36    31    32    1
    37    31    42    1
    38    32    33    1
    39    32    41    1
    40    33    34    1
    41    33    40    1
    42    34    35    1
    43    34    39    1
    44    35    36    1
    45    35    37    1
    46    37    38    1
