@<TRIPOS>MOLECULE
IMPHY008180
 26 28 0 0 0
SMALL
GASTEIGER

@<TRIPOS>ATOM
      1 O           6.4144    1.8592    0.0000 O.3     1  UNL1       -0.5028
      2 O           4.6660    1.8246    0.0000 O.2     1  UNL1       -0.2865
      3 O           4.6660   -2.1754    0.0000 O.2     1  UNL1       -0.2866
      4 O           8.1962    0.8488    0.0000 O.3     1  UNL1       -0.5033
      5 C           5.5321    0.3246    0.0000 C.ar    1  UNL1        0.0781
      6 C           5.5321   -0.6754    0.0000 C.ar    1  UNL1        0.0368
      7 C           3.8000    0.3246    0.0000 C.ar    1  UNL1        0.0332
      8 C           3.8000   -0.6754    0.0000 C.ar    1  UNL1        0.0331
      9 C           4.6660    0.8246    0.0000 C.2     1  UNL1        0.1981
     10 C           4.6660   -1.1754    0.0000 C.2     1  UNL1        0.1946
     11 C           6.4260    0.8593    0.0000 C.ar    1  UNL1        0.1699
     12 C           6.4260   -1.2100    0.0000 C.ar    1  UNL1       -0.0465
     13 C           2.9061    0.8593    0.0000 C.ar    1  UNL1       -0.0502
     14 C           2.9061   -1.2100    0.0000 C.ar    1  UNL1       -0.0502
     15 C           7.3321    0.3454    0.0000 C.ar    1  UNL1        0.1590
     16 C           7.3321   -0.6962    0.0000 C.ar    1  UNL1       -0.0158
     17 C           2.0000    0.3454    0.0000 C.ar    1  UNL1       -0.0610
     18 C           2.0000   -0.6962    0.0000 C.ar    1  UNL1       -0.0610
     19 H           6.4188   -1.8300    0.0000 H       1  UNL1        0.0626
     20 H           2.9132    1.4792    0.0000 H       1  UNL1        0.0625
     21 H           2.9132   -1.8300    0.0000 H       1  UNL1        0.0625
     22 H           7.8678   -1.0083    0.0000 H       1  UNL1        0.0655
     23 H           1.4643    0.6575    0.0000 H       1  UNL1        0.0618
     24 H           1.4643   -1.0083    0.0000 H       1  UNL1        0.0618
     25 H           6.9478    2.1754    0.0000 H       1  UNL1        0.2923
     26 H           8.7343    0.5408    0.0000 H       1  UNL1        0.2923
@<TRIPOS>BOND
     1     1    11    1
     2     1    25    1
     3     2     9    2
     4     3    10    2
     5     4    15    1
     6     4    26    1
     7     5     6   ar
     8     5     9    1
     9     5    11   ar
    10     6    10    1
    11     6    12   ar
    12     7     8   ar
    13     7     9    1
    14     7    13   ar
    15     8    10    1
    16     8    14   ar
    17    11    15   ar
    18    12    16   ar
    19    12    19    1
    20    13    17   ar
    21    13    20    1
    22    14    18   ar
    23    14    21    1
    24    15    16   ar
    25    16    22    1
    26    17    18   ar
    27    17    23    1
    28    18    24    1
