@<TRIPOS>MOLECULE
IMPHY009261
 42 45 0 0 0
SMALL
GASTEIGER

@<TRIPOS>ATOM
      1 O           5.5022    0.7334    0.0000 O.3     1  UNL1       -0.4823
      2 O           9.0382    0.7056    0.0000 O.3     1  UNL1       -0.4814
      3 O           7.2622   -2.3013    0.0000 O.3     1  UNL1       -0.5058
      4 O           5.5138   -2.3359    0.0000 O.2     1  UNL1       -0.2917
      5 C           4.5961    0.2195    0.0000 C.3     1  UNL1        0.1322
      6 C           9.0462    1.7472    0.0000 C.3     1  UNL1        0.1235
      7 C           6.3961    0.1987    0.0000 C.ar    1  UNL1        0.1460
      8 C           7.2622    0.6987    0.0000 C.ar    1  UNL1        0.0591
      9 C           4.5961   -0.8221    0.0000 C.3     1  UNL1        0.0520
     10 C           6.3961   -0.8013    0.0000 C.ar    1  UNL1        0.1012
     11 C           8.1282    0.1987    0.0000 C.ar    1  UNL1        0.1359
     12 C           5.5022   -1.3359    0.0000 C.2     1  UNL1        0.1740
     13 C           8.1441    2.2680    0.0000 C.2     1  UNL1       -0.0408
     14 C           7.2461    1.7402    0.0000 C.2     1  UNL1       -0.0478
     15 C           3.7320    0.7229    0.0000 C.ar    1  UNL1       -0.0069
     16 C           7.2622   -1.3013    0.0000 C.ar    1  UNL1        0.1344
     17 C           8.1282   -0.8013    0.0000 C.ar    1  UNL1        0.0231
     18 C           9.5496    2.6113    0.0000 C.3     1  UNL1       -0.0215
     19 C          10.0462    1.7433    0.0000 C.3     1  UNL1       -0.0215
     20 C           3.7359    1.7229    0.0000 C.ar    1  UNL1       -0.0551
     21 C           2.8641    0.2262    0.0000 C.ar    1  UNL1       -0.0551
     22 C           2.8718    2.2262    0.0000 C.ar    1  UNL1       -0.0614
     23 C           2.0000    0.7296    0.0000 C.ar    1  UNL1       -0.0614
     24 C           2.0038    1.7296    0.0000 C.ar    1  UNL1       -0.0617
     25 H           4.5997    0.8395    0.0000 H       1  UNL1        0.0789
     26 H           3.9853   -0.7160    0.0000 H       1  UNL1        0.0385
     27 H           4.3871   -1.4058    0.0000 H       1  UNL1        0.0385
     28 H           8.1418    2.8880    0.0000 H       1  UNL1        0.0611
     29 H           6.7056    2.0440    0.0000 H       1  UNL1        0.0624
     30 H           8.6651   -1.1113    0.0000 H       1  UNL1        0.0691
     31 H          10.0438    1.1233    0.0000 H       1  UNL1        0.0271
     32 H          10.0853    2.2992    0.0000 H       1  UNL1        0.0271
     33 H           9.8616    3.1470    0.0000 H       1  UNL1        0.0271
     34 H           9.0138    2.9233    0.0000 H       1  UNL1        0.0271
     35 H          10.6662    1.7409    0.0000 H       1  UNL1        0.0271
     36 H          10.0486    2.3633    0.0000 H       1  UNL1        0.0271
     37 H           4.2740    2.0308    0.0000 H       1  UNL1        0.0621
     38 H           2.8617   -0.3938    0.0000 H       1  UNL1        0.0621
     39 H           7.7991   -2.6113    0.0000 H       1  UNL1        0.2922
     40 H           2.8742    2.8462    0.0000 H       1  UNL1        0.0618
     41 H           1.4619    0.4216    0.0000 H       1  UNL1        0.0618
     42 H           1.4681    2.0416    0.0000 H       1  UNL1        0.0618
@<TRIPOS>BOND
     1     1     5    1
     2     1     7    1
     3     2     6    1
     4     2    11    1
     5     3    16    1
     6     3    39    1
     7     4    12    2
     8     5     9    1
     9     5    15    1
    10     5    25    1
    11     6    13    1
    12     6    18    1
    13     6    19    1
    14     7     8   ar
    15     7    10   ar
    16     8    11   ar
    17     8    14    1
    18     9    12    1
    19     9    26    1
    20     9    27    1
    21    10    12    1
    22    10    16   ar
    23    11    17   ar
    24    13    14    2
    25    13    28    1
    26    14    29    1
    27    15    20   ar
    28    15    21   ar
    29    16    17   ar
    30    17    30    1
    31    18    32    1
    32    18    33    1
    33    18    34    1
    34    19    31    1
    35    19    35    1
    36    19    36    1
    37    20    22   ar
    38    20    37    1
    39    21    23   ar
    40    21    38    1
    41    22    24   ar
    42    22    40    1
    43    23    24   ar
    44    23    41    1
    45    24    42    1
