@<TRIPOS>MOLECULE
IMPHY015395
 67 70 0 0 0
SMALL
GASTEIGER

@<TRIPOS>ATOM
      1 O           8.2489   -2.7827    0.0000 O.2     1  UNL1       -0.3969
      2 O          12.0284    2.5003    0.0000 O.2     1  UNL1       -0.3971
      3 O           2.8680   -0.7658    0.0000 O.2     1  UNL1       -0.3969
      4 N           7.3810   -2.2861    0.0000 N.2     1  UNL1       -0.0896
      5 N          11.3605    3.2446    0.0000 N.2     1  UNL1       -0.0943
      6 N           3.7320   -1.2692    0.0000 N.2     1  UNL1       -0.0899
      7 C           9.1251    1.7832    0.0000 C.3     1  UNL1       -0.0209
      8 C           9.1251    0.7832    0.0000 C.3     1  UNL1       -0.0316
      9 C           8.2591    0.2832    0.0000 C.3     1  UNL1       -0.0286
     10 C           7.3931    0.7832    0.0000 C.3     1  UNL1       -0.0281
     11 C          10.0713    2.0879    0.0000 C.3     1  UNL1        0.0060
     12 C           8.2591    2.2832    0.0000 C.3     1  UNL1       -0.0465
     13 C           6.4831    0.2763    0.0000 C.3     1  UNL1       -0.0018
     14 C           7.3931    1.7832    0.0000 C.3     1  UNL1       -0.0486
     15 C          10.0713    0.4784    0.0000 C.3     1  UNL1       -0.0488
     16 C          10.6550    1.2832    0.0000 C.3     1  UNL1       -0.0442
     17 C           8.2752   -0.7583    0.0000 C.3     1  UNL1       -0.0036
     18 C           9.1251    2.7832    0.0000 C.3     1  UNL1       -0.0587
     19 C           6.4750   -0.7653    0.0000 C.2     1  UNL1       -0.0150
     20 C           5.5562    0.8404    0.0000 C.3     1  UNL1       -0.0378
     21 C           7.3771   -1.2861    0.0000 C.2     1  UNL1        0.0841
     22 C           6.4908    1.2763    0.0000 C.3     1  UNL1       -0.0552
     23 C          10.3820    3.0384    0.0000 C.2     1  UNL1        0.0581
     24 C           4.6084    0.3125    0.0000 C.3     1  UNL1       -0.0064
     25 C           5.5396   -1.3150    0.0000 C.2     1  UNL1       -0.0318
     26 C           4.6000   -0.7725    0.0000 C.2     1  UNL1        0.0804
     27 C           9.7142    3.7827    0.0000 C.3     1  UNL1       -0.0229
     28 C           8.2528   -3.7827    0.0000 C.3     1  UNL1        0.1072
     29 C          13.0069    2.7066    0.0000 C.3     1  UNL1        0.1072
     30 C           2.0000   -1.2625    0.0000 C.3     1  UNL1        0.1072
     31 H           9.2151   -0.0621    0.0000 H       1  UNL1        0.0309
     32 H           8.9985   -0.1361    0.0000 H       1  UNL1        0.0310
     33 H           8.1292    1.2082    0.0000 H       1  UNL1        0.0312
     34 H           9.6339    2.5273    0.0000 H       1  UNL1        0.0367
     35 H           8.6576    2.7581    0.0000 H       1  UNL1        0.0271
     36 H           7.8606    2.7581    0.0000 H       1  UNL1        0.0271
     37 H           7.1810    2.3658    0.0000 H       1  UNL1        0.0268
     38 H           6.7825    1.6755    0.0000 H       1  UNL1        0.0268
     39 H           9.8203   -0.0885    0.0000 H       1  UNL1        0.0268
     40 H          10.6087    0.1692    0.0000 H       1  UNL1        0.0268
     41 H          11.1158    0.8684    0.0000 H       1  UNL1        0.0272
     42 H          11.1158    1.6979    0.0000 H       1  UNL1        0.0272
     43 H           8.4932   -1.3387    0.0000 H       1  UNL1        0.0332
     44 H           8.8843   -0.6428    0.0000 H       1  UNL1        0.0332
     45 H           9.7451    2.7832    0.0000 H       1  UNL1        0.0235
     46 H           9.1251    3.4032    0.0000 H       1  UNL1        0.0235
     47 H           8.5051    2.7832    0.0000 H       1  UNL1        0.0235
     48 H           5.9644    1.3071    0.0000 H       1  UNL1        0.0277
     49 H           5.1663    1.3224    0.0000 H       1  UNL1        0.0277
     50 H           7.1108    1.2715    0.0000 H       1  UNL1        0.0238
     51 H           6.4956    1.8963    0.0000 H       1  UNL1        0.0238
     52 H           5.8708    1.2811    0.0000 H       1  UNL1        0.0238
     53 H           4.4038    0.8978    0.0000 H       1  UNL1        0.0329
     54 H           3.9967    0.2111    0.0000 H       1  UNL1        0.0329
     55 H           5.5420   -1.9350    0.0000 H       1  UNL1        0.0640
     56 H          10.1756    4.1968    0.0000 H       1  UNL1        0.0290
     57 H           9.3001    4.2442    0.0000 H       1  UNL1        0.0290
     58 H           9.2527    3.3687    0.0000 H       1  UNL1        0.0290
     59 H           7.6328   -3.7851    0.0000 H       1  UNL1        0.0687
     60 H           8.2552   -4.4027    0.0000 H       1  UNL1        0.0687
     61 H           8.8728   -3.7803    0.0000 H       1  UNL1        0.0687
     62 H          13.1347    2.0999    0.0000 H       1  UNL1        0.0687
     63 H          13.6135    2.8344    0.0000 H       1  UNL1        0.0687
     64 H          12.8790    3.3132    0.0000 H       1  UNL1        0.0687
     65 H           1.6921   -0.7244    0.0000 H       1  UNL1        0.0687
     66 H           1.4619   -1.5704    0.0000 H       1  UNL1        0.0687
     67 H           2.3079   -1.8006    0.0000 H       1  UNL1        0.0687
@<TRIPOS>BOND
     1     1     4    1
     2     1    28    1
     3     2     5    1
     4     2    29    1
     5     3     6    1
     6     3    30    1
     7     4    21    2
     8     5    23    2
     9     6    26    2
    10     7     8    1
    11     7    11    1
    12     7    12    1
    13     7    18    1
    14     8     9    1
    15     8    15    1
    16     8    31    1
    17     9    10    1
    18     9    17    1
    19     9    32    1
    20    10    13    1
    21    10    14    1
    22    10    33    1
    23    11    16    1
    24    11    23    1
    25    11    34    1
    26    12    14    1
    27    12    35    1
    28    12    36    1
    29    13    19    1
    30    13    20    1
    31    13    22    1
    32    14    37    1
    33    14    38    1
    34    15    16    1
    35    15    39    1
    36    15    40    1
    37    16    41    1
    38    16    42    1
    39    17    21    1
    40    17    43    1
    41    17    44    1
    42    18    45    1
    43    18    46    1
    44    18    47    1
    45    19    21    1
    46    19    25    2
    47    20    24    1
    48    20    48    1
    49    20    49    1
    50    22    50    1
    51    22    51    1
    52    22    52    1
    53    23    27    1
    54    24    26    1
    55    24    53    1
    56    24    54    1
    57    25    26    1
    58    25    55    1
    59    27    56    1
    60    27    57    1
    61    27    58    1
    62    28    59    1
    63    28    60    1
    64    28    61    1
    65    29    62    1
    66    29    63    1
    67    29    64    1
    68    30    65    1
    69    30    66    1
    70    30    67    1
