@<TRIPOS>MOLECULE
IMPHY001784
 85 88 0 0 0
SMALL
GASTEIGER

@<TRIPOS>ATOM
      1 O           4.7950    0.1595    0.0000 O.3     1  UNL1       -0.3912
      2 O           2.0000   -3.3928    0.0000 O.2     1  UNL1       -0.2968
      3 O           9.2713    2.8158    0.0000 O.3     1  UNL1       -0.3891
      4 O          11.5855    1.5334    0.0000 O.3     1  UNL1       -0.3864
      5 O          11.5390    4.1788    0.0000 O.3     1  UNL1       -0.3865
      6 C           6.5271   -1.8405    0.0000 C.3     1  UNL1       -0.0173
      7 C           5.6610   -1.3405    0.0000 C.3     1  UNL1       -0.0028
      8 C           4.7510   -1.8473    0.0000 C.3     1  UNL1       -0.0223
      9 C           7.3931   -1.3405    0.0000 C.3     1  UNL1       -0.0047
     10 C           4.7430   -2.8889    0.0000 C.3     1  UNL1       -0.0234
     11 C           6.5431   -2.8820    0.0000 C.3     1  UNL1       -0.0462
     12 C           5.6610   -0.3405    0.0000 C.3     1  UNL1        0.0628
     13 C           5.6451   -3.4098    0.0000 C.3     1  UNL1       -0.0483
     14 C           7.3931   -0.3405    0.0000 C.2     1  UNL1       -0.0612
     15 C           3.8076   -3.4387    0.0000 C.3     1  UNL1        0.0267
     16 C           3.8242   -1.2833    0.0000 C.3     1  UNL1       -0.0403
     17 C           8.3393   -1.6452    0.0000 C.3     1  UNL1       -0.0397
     18 C           6.5271    0.1595    0.0000 C.3     1  UNL1       -0.0045
     19 C           7.1698   -2.6065    0.0000 C.3     1  UNL1       -0.0584
     20 C           4.7587   -0.8474    0.0000 C.3     1  UNL1       -0.0589
     21 C           8.3393   -0.0358    0.0000 C.2     1  UNL1       -0.0667
     22 C           7.7352   -2.2802    0.0000 C.3     1  UNL1       -0.0553
     23 C           8.9229   -0.8405    0.0000 C.3     1  UNL1       -0.0304
     24 C           2.8763   -1.8112    0.0000 C.3     1  UNL1        0.0069
     25 C           2.8680   -2.8962    0.0000 C.2     1  UNL1        0.1392
     26 C           3.3109   -4.3066    0.0000 C.3     1  UNL1       -0.0528
     27 C           4.3109   -4.3028    0.0000 C.3     1  UNL1       -0.0528
     28 C           8.6500    0.9148    0.0000 C.3     1  UNL1       -0.0200
     29 C           9.6285    1.1210    0.0000 C.3     1  UNL1       -0.0180
     30 C           7.9821    1.6591    0.0000 C.3     1  UNL1       -0.0586
     31 C           9.9391    2.0715    0.0000 C.3     1  UNL1        0.0843
     32 C          10.9176    2.2777    0.0000 C.3     1  UNL1        0.1091
     33 C          11.2283    3.2282    0.0000 C.3     1  UNL1        0.0887
     34 C          12.1788    2.9176    0.0000 C.3     1  UNL1       -0.0338
     35 C          10.2778    3.5389    0.0000 C.3     1  UNL1       -0.0338
     36 H           6.3972   -0.9155    0.0000 H       1  UNL1        0.0337
     37 H           4.7463   -3.7389    0.0000 H       1  UNL1        0.0315
     38 H           6.7612   -3.4624    0.0000 H       1  UNL1        0.0271
     39 H           7.1523   -2.7665    0.0000 H       1  UNL1        0.0271
     40 H           5.6610    0.2795    0.0000 H       1  UNL1        0.0599
     41 H           5.2478   -3.8857    0.0000 H       1  UNL1        0.0269
     42 H           6.0460   -3.8826    0.0000 H       1  UNL1        0.0269
     43 H           4.2324   -0.8166    0.0000 H       1  UNL1        0.0275
     44 H           3.4343   -0.8012    0.0000 H       1  UNL1        0.0275
     45 H           8.0883   -2.2121    0.0000 H       1  UNL1        0.0277
     46 H           8.8767   -1.9544    0.0000 H       1  UNL1        0.0277
     47 H           6.9256    0.6345    0.0000 H       1  UNL1        0.0335
     48 H           6.1285    0.6345    0.0000 H       1  UNL1        0.0335
     49 H           6.6949   -3.0051    0.0000 H       1  UNL1        0.0235
     50 H           7.5684   -3.0815    0.0000 H       1  UNL1        0.0235
     51 H           7.6448   -2.2080    0.0000 H       1  UNL1        0.0235
     52 H           5.3787   -0.8522    0.0000 H       1  UNL1        0.0235
     53 H           4.7635   -0.2274    0.0000 H       1  UNL1        0.0235
     54 H           4.1388   -0.8426    0.0000 H       1  UNL1        0.0235
     55 H           7.1526   -2.4923    0.0000 H       1  UNL1        0.0238
     56 H           7.9473   -2.8627    0.0000 H       1  UNL1        0.0238
     57 H           8.3178   -2.0680    0.0000 H       1  UNL1        0.0238
     58 H           9.3838   -1.2552    0.0000 H       1  UNL1        0.0310
     59 H           9.3838   -0.4258    0.0000 H       1  UNL1        0.0310
     60 H           2.6718   -1.2259    0.0000 H       1  UNL1        0.0342
     61 H           2.2647   -1.9126    0.0000 H       1  UNL1        0.0342
     62 H           3.7752   -4.6148    0.0000 H       1  UNL1        0.0239
     63 H           4.6230   -4.8385    0.0000 H       1  UNL1        0.0239
     64 H           4.8466   -3.9907    0.0000 H       1  UNL1        0.0239
     65 H           2.7728   -3.9987    0.0000 H       1  UNL1        0.0239
     66 H           3.0030   -4.8447    0.0000 H       1  UNL1        0.0239
     67 H           3.8490   -4.6145    0.0000 H       1  UNL1        0.0239
     68 H           8.0433    0.7869    0.0000 H       1  UNL1        0.0344
     69 H           4.7950    0.7795    0.0000 H       1  UNL1        0.2098
     70 H           9.6490    0.5013    0.0000 H       1  UNL1        0.0297
     71 H          10.2423    1.0336    0.0000 H       1  UNL1        0.0297
     72 H           8.4436    2.0731    0.0000 H       1  UNL1        0.0235
     73 H           7.5681    2.1205    0.0000 H       1  UNL1        0.0235
     74 H           7.5207    1.2450    0.0000 H       1  UNL1        0.0235
     75 H          10.1317    2.6608    0.0000 H       1  UNL1        0.0620
     76 H          10.7250    1.6884    0.0000 H       1  UNL1        0.0648
     77 H           9.4639    3.4051    0.0000 H       1  UNL1        0.2099
     78 H          12.1922    1.6613    0.0000 H       1  UNL1        0.2100
     79 H          10.4704    4.1282    0.0000 H       1  UNL1        0.0258
     80 H           9.6885    3.7315    0.0000 H       1  UNL1        0.0258
     81 H          10.0852    2.9496    0.0000 H       1  UNL1        0.0258
     82 H          11.9862    2.3282    0.0000 H       1  UNL1        0.0258
     83 H          12.7681    2.7250    0.0000 H       1  UNL1        0.0258
     84 H          12.3714    3.5069    0.0000 H       1  UNL1        0.0258
     85 H          12.1456    4.3066    0.0000 H       1  UNL1        0.2102
@<TRIPOS>BOND
     1    12     1    1
     2     1    69    1
     3     2    25    2
     4    31     3    1
     5     3    77    1
     6    32     4    1
     7     4    78    1
     8     5    33    1
     9     5    85    1
    10     6     7    1
    11     6     9    1
    12     6    11    1
    13     6    19    1
    14     7     8    1
    15     7    12    1
    16     7    36    1
    17     8    10    1
    18     8    16    1
    19     8    20    1
    20     9    14    1
    21     9    17    1
    22     9    22    1
    23    10    13    1
    24    10    15    1
    25    10    37    1
    26    11    13    1
    27    11    38    1
    28    11    39    1
    29    12    18    1
    30    12    40    1
    31    13    41    1
    32    13    42    1
    33    14    18    1
    34    14    21    2
    35    15    25    1
    36    15    26    1
    37    15    27    1
    38    16    24    1
    39    16    43    1
    40    16    44    1
    41    17    23    1
    42    17    45    1
    43    17    46    1
    44    18    47    1
    45    18    48    1
    46    19    49    1
    47    19    50    1
    48    19    51    1
    49    20    52    1
    50    20    53    1
    51    20    54    1
    52    21    23    1
    53    21    28    1
    54    22    55    1
    55    22    56    1
    56    22    57    1
    57    23    58    1
    58    23    59    1
    59    24    25    1
    60    24    60    1
    61    24    61    1
    62    26    65    1
    63    26    66    1
    64    26    67    1
    65    27    62    1
    66    27    63    1
    67    27    64    1
    68    28    29    1
    69    28    30    1
    70    28    68    1
    71    29    31    1
    72    29    70    1
    73    29    71    1
    74    30    72    1
    75    30    73    1
    76    30    74    1
    77    31    32    1
    78    31    75    1
    79    32    33    1
    80    32    76    1
    81    33    34    1
    82    33    35    1
    83    34    82    1
    84    34    83    1
    85    34    84    1
    86    35    79    1
    87    35    80    1
    88    35    81    1
