@<TRIPOS>MOLECULE
IMPHY009695
 42 44 0 0 0
SMALL
GASTEIGER

@<TRIPOS>ATOM
      1 O           2.5000    1.8654    0.0000 O.3     1  UNL1       -0.3886
      2 C           3.8660   -0.5006    0.0000 C.3     1  UNL1       -0.0129
      3 C           3.0000   -0.0006    0.0000 C.3     1  UNL1       -0.0052
      4 C           2.9997   -1.0011    0.0000 C.3     1  UNL1       -0.0401
      5 C           4.7320   -0.0006    0.0000 C.3     1  UNL1       -0.0255
      6 C           3.8500   -1.5421    0.0000 C.3     1  UNL1       -0.0284
      7 C           3.0000    0.9994    0.0000 C.3     1  UNL1        0.0667
      8 C           4.7320    0.9994    0.0000 C.3     1  UNL1       -0.0445
      9 C           5.6420   -0.5075    0.0000 C.3     1  UNL1       -0.0471
     10 C           3.8660    1.4994    0.0000 C.3     1  UNL1       -0.0235
     11 C           4.7480   -2.0699    0.0000 C.3     1  UNL1       -0.0473
     12 C           5.6501   -1.5491    0.0000 C.3     1  UNL1       -0.0520
     13 C           5.5981    0.4994    0.0000 C.3     1  UNL1       -0.0590
     14 C           3.3400   -2.4023    0.0000 C.3     1  UNL1       -0.0593
     15 C           2.9064   -1.8733    0.0000 C.3     1  UNL1       -0.0593
     16 C           2.0000    0.9994    0.0000 C.3     1  UNL1       -0.0358
     17 H           2.1500   -0.0005    0.0000 H       1  UNL1        0.0334
     18 H           2.3892   -1.1087    0.0000 H       1  UNL1        0.0275
     19 H           3.2118   -1.5837    0.0000 H       1  UNL1        0.0275
     20 H           5.3426    0.8917    0.0000 H       1  UNL1        0.0272
     21 H           4.9441    1.5820    0.0000 H       1  UNL1        0.0272
     22 H           6.2537   -0.6089    0.0000 H       1  UNL1        0.0271
     23 H           5.8466    0.0778    0.0000 H       1  UNL1        0.0271
     24 H           4.2646    1.9743    0.0000 H       1  UNL1        0.0293
     25 H           3.4675    1.9743    0.0000 H       1  UNL1        0.0293
     26 H           4.3470   -2.5428    0.0000 H       1  UNL1        0.0271
     27 H           5.1453   -2.5459    0.0000 H       1  UNL1        0.0271
     28 H           5.8636   -2.1311    0.0000 H       1  UNL1        0.0266
     29 H           6.2601   -1.4383    0.0000 H       1  UNL1        0.0266
     30 H           5.9081   -0.0376    0.0000 H       1  UNL1        0.0235
     31 H           6.1350    0.8094    0.0000 H       1  UNL1        0.0235
     32 H           5.2881    1.0363    0.0000 H       1  UNL1        0.0235
     33 H           2.7011   -1.2882    0.0000 H       1  UNL1        0.0235
     34 H           2.3214   -2.0786    0.0000 H       1  UNL1        0.0235
     35 H           3.1117   -2.4583    0.0000 H       1  UNL1        0.0235
     36 H           2.8067   -2.0861    0.0000 H       1  UNL1        0.0235
     37 H           3.0238   -2.9356    0.0000 H       1  UNL1        0.0235
     38 H           3.8733   -2.7185    0.0000 H       1  UNL1        0.0235
     39 H           2.0000    1.6194    0.0000 H       1  UNL1        0.0257
     40 H           1.3800    0.9994    0.0000 H       1  UNL1        0.0257
     41 H           2.0000    0.3794    0.0000 H       1  UNL1        0.0257
     42 H           2.8100    2.4023    0.0000 H       1  UNL1        0.2102
@<TRIPOS>BOND
     1     7     1    1
     2     1    42    1
     3     2     3    1
     4     2     4    1
     5     2     5    1
     6     2     6    1
     7     3     4    1
     8     3     7    1
     9     3    17    1
    10     4    18    1
    11     4    19    1
    12     5     8    1
    13     5     9    1
    14     5    13    1
    15     6    11    1
    16     6    14    1
    17     6    15    1
    18     7    10    1
    19     7    16    1
    20     8    10    1
    21     8    20    1
    22     8    21    1
    23     9    12    1
    24     9    22    1
    25     9    23    1
    26    10    24    1
    27    10    25    1
    28    11    12    1
    29    11    26    1
    30    11    27    1
    31    12    28    1
    32    12    29    1
    33    13    30    1
    34    13    31    1
    35    13    32    1
    36    14    36    1
    37    14    37    1
    38    14    38    1
    39    15    33    1
    40    15    34    1
    41    15    35    1
    42    16    39    1
    43    16    40    1
    44    16    41    1
