@<TRIPOS>MOLECULE
IMPHY003694
 39 39 0 0 0
SMALL
GASTEIGER

@<TRIPOS>ATOM
      1 C           5.4641   -0.3100    0.0000 C.3     1  UNL1       -0.0167
      2 C           5.4641    0.6900    0.0000 C.3     1  UNL1       -0.0426
      3 C           4.5981   -0.8100    0.0000 C.3     1  UNL1       -0.0280
      4 C           4.5981    1.1900    0.0000 C.3     1  UNL1       -0.0315
      5 C           6.3301   -0.8100    0.0000 C.2     1  UNL1       -0.0763
      6 C           3.7320    0.6900    0.0000 C.2     1  UNL1       -0.0765
      7 C           3.7320   -0.3100    0.0000 C.2     1  UNL1       -0.0845
      8 C           2.0000   -0.3100    0.0000 C.3     1  UNL1       -0.0286
      9 C           2.8660   -0.8100    0.0000 C.2     1  UNL1       -0.0762
     10 C           2.0000    0.6900    0.0000 C.3     1  UNL1       -0.0308
     11 C           2.8660    1.1900    0.0000 C.2     1  UNL1       -0.0847
     12 C           7.1962   -0.3100    0.0000 C.3     1  UNL1       -0.0438
     13 C           3.4630   -0.8365    0.0000 C.3     1  UNL1       -0.0438
     14 C           2.8660   -1.8100    0.0000 C.3     1  UNL1       -0.0438
     15 C           6.3301   -1.8100    0.0000 C.2     1  UNL1       -0.0994
     16 H           5.4641   -0.9300    0.0000 H       1  UNL1        0.0348
     17 H           6.0747    0.5823    0.0000 H       1  UNL1        0.0274
     18 H           5.6762    1.2726    0.0000 H       1  UNL1        0.0274
     19 H           4.1996   -1.2850    0.0000 H       1  UNL1        0.0313
     20 H           4.9966   -1.2850    0.0000 H       1  UNL1        0.0313
     21 H           4.9966    1.6650    0.0000 H       1  UNL1        0.0310
     22 H           4.1996    1.6650    0.0000 H       1  UNL1        0.0310
     23 H           4.1306    0.1649    0.0000 H       1  UNL1        0.0572
     24 H           1.3894   -0.2023    0.0000 H       1  UNL1        0.0313
     25 H           1.7880   -0.8926    0.0000 H       1  UNL1        0.0313
     26 H           1.7880    1.2726    0.0000 H       1  UNL1        0.0310
     27 H           1.3894    0.5823    0.0000 H       1  UNL1        0.0310
     28 H           2.8660    1.8100    0.0000 H       1  UNL1        0.0572
     29 H           7.5062   -0.8469    0.0000 H       1  UNL1        0.0274
     30 H           7.7331    0.0000    0.0000 H       1  UNL1        0.0274
     31 H           6.8862    0.2269    0.0000 H       1  UNL1        0.0274
     32 H           2.8524   -0.7289    0.0000 H       1  UNL1        0.0274
     33 H           3.3554   -1.4471    0.0000 H       1  UNL1        0.0274
     34 H           4.0736   -0.9441    0.0000 H       1  UNL1        0.0274
     35 H           2.2460   -1.8100    0.0000 H       1  UNL1        0.0274
     36 H           2.8660   -2.4300    0.0000 H       1  UNL1        0.0274
     37 H           3.4860   -1.8100    0.0000 H       1  UNL1        0.0274
     38 H           5.7932   -2.1200    0.0000 H       1  UNL1        0.0534
     39 H           6.8671   -2.1200    0.0000 H       1  UNL1        0.0534
@<TRIPOS>BOND
     1     1     2    1
     2     1     3    1
     3     1     5    1
     4     1    16    1
     5     2     4    1
     6     2    17    1
     7     2    18    1
     8     3     7    1
     9     3    19    1
    10     3    20    1
    11     4     6    1
    12     4    21    1
    13     4    22    1
    14     5    12    1
    15     5    15    2
    16     6    11    2
    17     6    13    1
    18     7     9    2
    19     7    23    1
    20     8     9    1
    21     8    10    1
    22     8    24    1
    23     8    25    1
    24     9    14    1
    25    10    11    1
    26    10    26    1
    27    10    27    1
    28    11    28    1
    29    12    29    1
    30    12    30    1
    31    12    31    1
    32    13    32    1
    33    13    33    1
    34    13    34    1
    35    14    35    1
    36    14    36    1
    37    14    37    1
    38    15    38    1
    39    15    39    1
