@<TRIPOS>MOLECULE
IMPHY003503
 41 44 0 0 0
SMALL
GASTEIGER

@<TRIPOS>ATOM
      1 O           3.0332   -0.7732    0.0000 O.3     1  UNL1       -0.3794
      2 O           2.8622    1.3938    0.0000 O.3     1  UNL1       -0.4600
      3 O           2.0000   -0.1587    0.0000 O.2     1  UNL1       -0.2505
      4 N           6.4088    0.3688    0.0000 N.3     1  UNL1       -0.2889
      5 C           5.5393   -0.1332    0.0000 C.3     1  UNL1        0.0678
      6 C           5.7493   -1.1091    0.0000 C.2     1  UNL1       -0.0479
      7 C           4.5196   -0.3364    0.0000 C.3     1  UNL1       -0.0000
      8 C           4.6697    0.3688    0.0000 C.2     1  UNL1       -0.0323
      9 C           7.1489   -0.3010    0.0000 C.3     1  UNL1        0.0037
     10 C           6.7421   -1.2126    0.0000 C.3     1  UNL1       -0.0168
     11 C           6.4088    1.3729    0.0000 C.3     1  UNL1        0.0038
     12 C           4.0000   -1.0285    0.0000 C.3     1  UNL1        0.0640
     13 C           4.6697    1.3729    0.0000 C.2     1  UNL1       -0.0296
     14 C           5.5393    1.8750    0.0000 C.3     1  UNL1       -0.0154
     15 C           4.1130   -1.9098    0.0000 C.3     1  UNL1       -0.0080
     16 C           5.2430   -1.7517    0.0000 C.2     1  UNL1       -0.0802
     17 C           3.7720   -0.1681    0.0000 C.3     1  UNL1        0.0684
     18 C           3.7720    1.9098    0.0000 C.3     1  UNL1        0.1140
     19 C           2.8622    0.3479    0.0000 C.2     1  UNL1        0.3115
     20 C           2.3286   -1.4828    0.0000 C.3     1  UNL1        0.0368
     21 H           4.5713    0.2815    0.0000 H       1  UNL1        0.0315
     22 H           3.9401   -0.1158    0.0000 H       1  UNL1        0.0315
     23 H           7.6854   -0.6118    0.0000 H       1  UNL1        0.0430
     24 H           7.5143    0.1998    0.0000 H       1  UNL1        0.0430
     25 H           6.6134   -1.8191    0.0000 H       1  UNL1        0.0323
     26 H           7.3317   -1.4044    0.0000 H       1  UNL1        0.0323
     27 H           7.0194    1.2653    0.0000 H       1  UNL1        0.0430
     28 H           6.6209    1.9555    0.0000 H       1  UNL1        0.0430
     29 H           4.3799   -0.4429    0.0000 H       1  UNL1        0.0599
     30 H           5.9378    2.3499    0.0000 H       1  UNL1        0.0324
     31 H           5.1407    2.3499    0.0000 H       1  UNL1        0.0324
     32 H           3.4984   -1.9910    0.0000 H       1  UNL1        0.0332
     33 H           4.1966   -2.5242    0.0000 H       1  UNL1        0.0332
     34 H           5.5517   -2.2894    0.0000 H       1  UNL1        0.0573
     35 H           3.3784   -0.6471    0.0000 H       1  UNL1        0.0424
     36 H           4.1766   -0.6379    0.0000 H       1  UNL1        0.0424
     37 H           4.1766    2.3796    0.0000 H       1  UNL1        0.0745
     38 H           3.3784    2.3889    0.0000 H       1  UNL1        0.0745
     39 H           1.8886   -1.0460    0.0000 H       1  UNL1        0.0524
     40 H           1.8918   -1.9228    0.0000 H       1  UNL1        0.0524
     41 H           2.7686   -1.9196    0.0000 H       1  UNL1        0.0524
@<TRIPOS>BOND
     1    12     1    1
     2     1    20    1
     3     2    18    1
     4     2    19    1
     5     3    19    2
     6     4     5    1
     7     4     9    1
     8     4    11    1
     9     5     6    1
    10     5     7    1
    11     5     8    1
    12     6    10    1
    13     6    16    2
    14     7    12    1
    15     7    21    1
    16     7    22    1
    17     8    13    2
    18     8    17    1
    19     9    10    1
    20     9    23    1
    21     9    24    1
    22    10    25    1
    23    10    26    1
    24    11    14    1
    25    11    27    1
    26    11    28    1
    27    12    15    1
    28    12    29    1
    29    13    14    1
    30    13    18    1
    31    14    30    1
    32    14    31    1
    33    15    16    1
    34    15    32    1
    35    15    33    1
    36    16    34    1
    37    17    19    1
    38    17    35    1
    39    17    36    1
    40    18    37    1
    41    18    38    1
    42    20    39    1
    43    20    40    1
    44    20    41    1
