@<TRIPOS>MOLECULE
IMPHY015017
 53 56 0 0 0
SMALL
GASTEIGER

@<TRIPOS>ATOM
      1 O           4.2690   -1.2857    0.0000 O.3     1  UNL1       -0.3339
      2 O           6.0010   -1.2857    0.0000 O.3     1  UNL1       -0.4532
      3 O           4.2690   -4.2857    0.0000 O.3     1  UNL1       -0.3864
      4 O           2.5369   -3.2857    0.0000 O.3     1  UNL1       -0.3866
      5 O           6.0010   -3.2857    0.0000 O.3     1  UNL1       -0.3829
      6 O           6.8671    1.2143    0.0000 O.2     1  UNL1       -0.4507
      7 O           4.2690   -0.2857    0.0000 O.2     1  UNL1       -0.2830
      8 O           3.3648    1.2112    0.0000 O.3     1  UNL1       -0.5058
      9 O           5.1229    4.2836    0.0000 O.3     1  UNL1       -0.5065
     10 O           8.5991   -2.7857    0.0000 O.3     1  UNL1       -0.5032
     11 O          10.3312    0.2143    0.0000 O.3     1  UNL1       -0.5032
     12 O          10.3312   -1.7857    0.0000 O.3     1  UNL1       -0.5009
     13 C           4.2690   -3.2857    0.0000 C.3     1  UNL1        0.1151
     14 C           3.4030   -2.7857    0.0000 C.3     1  UNL1        0.1096
     15 C           5.1350   -2.7857    0.0000 C.3     1  UNL1        0.1454
     16 C           3.4030   -1.7857    0.0000 C.3     1  UNL1        0.0883
     17 C           5.1350   -1.7857    0.0000 C.3     1  UNL1        0.2311
     18 C           2.5369   -1.2857    0.0000 C.3     1  UNL1       -0.0360
     19 C           6.0010   -0.2857    0.0000 C.ar    1  UNL1        0.2138
     20 C           6.8671    0.2143    0.0000 C.ar    1  UNL1        0.1812
     21 C           5.1350    0.2143    0.0000 C.ar    1  UNL1        0.2382
     22 C           5.1350    1.2143    0.0000 C.ar    1  UNL1        0.1092
     23 C           6.0010    1.7143    0.0000 C.ar    1  UNL1        0.1465
     24 C           7.7331   -0.2857    0.0000 C.ar    1  UNL1        0.0282
     25 C           4.2250    1.7212    0.0000 C.ar    1  UNL1        0.1348
     26 C           6.0171    2.7558    0.0000 C.ar    1  UNL1        0.0231
     27 C           8.5991    0.2143    0.0000 C.ar    1  UNL1       -0.0055
     28 C           7.7331   -1.2857    0.0000 C.ar    1  UNL1       -0.0055
     29 C           4.2170    2.7628    0.0000 C.ar    1  UNL1        0.0223
     30 C           5.1191    3.2836    0.0000 C.ar    1  UNL1        0.1239
     31 C           8.5991   -1.7857    0.0000 C.ar    1  UNL1        0.1626
     32 C           9.4651   -0.2857    0.0000 C.ar    1  UNL1        0.1626
     33 C           9.4651   -1.2857    0.0000 C.ar    1  UNL1        0.2006
     34 H           3.7320   -3.5957    0.0000 H       1  UNL1        0.0648
     35 H           3.4030   -3.4057    0.0000 H       1  UNL1        0.0646
     36 H           5.1350   -3.4057    0.0000 H       1  UNL1        0.0683
     37 H           3.4030   -1.1657    0.0000 H       1  UNL1        0.0621
     38 H           5.1350   -1.1657    0.0000 H       1  UNL1        0.1084
     39 H           2.8469   -0.7487    0.0000 H       1  UNL1        0.0255
     40 H           2.0000   -0.9757    0.0000 H       1  UNL1        0.0255
     41 H           2.2269   -1.8226    0.0000 H       1  UNL1        0.0255
     42 H           3.7320   -4.5957    0.0000 H       1  UNL1        0.2100
     43 H           2.0000   -2.9757    0.0000 H       1  UNL1        0.2100
     44 H           6.0010   -3.9057    0.0000 H       1  UNL1        0.2102
     45 H           6.5576    3.0596    0.0000 H       1  UNL1        0.0691
     46 H           8.5991    0.8343    0.0000 H       1  UNL1        0.0662
     47 H           7.1962   -1.5957    0.0000 H       1  UNL1        0.0662
     48 H           3.6788    3.0707    0.0000 H       1  UNL1        0.0691
     49 H           2.8243    1.5150    0.0000 H       1  UNL1        0.2922
     50 H           4.5872    4.5957    0.0000 H       1  UNL1        0.2921
     51 H           8.0622   -3.0957    0.0000 H       1  UNL1        0.2923
     52 H          10.3312    0.8343    0.0000 H       1  UNL1        0.2923
     53 H          10.8681   -1.4757    0.0000 H       1  UNL1        0.2924
@<TRIPOS>BOND
     1     1    16    1
     2     1    17    1
     3     2    17    1
     4     2    19    1
     5     3    13    1
     6     3    42    1
     7     4    14    1
     8     4    43    1
     9     5    15    1
    10     5    44    1
    11     6    20   ar
    12     6    23   ar
    13     7    21    2
    14     8    25    1
    15     8    49    1
    16     9    30    1
    17     9    50    1
    18    10    31    1
    19    10    51    1
    20    11    32    1
    21    11    52    1
    22    12    33    1
    23    12    53    1
    24    13    14    1
    25    13    15    1
    26    13    34    1
    27    14    16    1
    28    14    35    1
    29    15    17    1
    30    15    36    1
    31    16    18    1
    32    16    37    1
    33    17    38    1
    34    18    39    1
    35    18    40    1
    36    18    41    1
    37    19    20   ar
    38    19    21   ar
    39    20    24    1
    40    21    22   ar
    41    22    23   ar
    42    22    25   ar
    43    23    26   ar
    44    24    27   ar
    45    24    28   ar
    46    25    29   ar
    47    26    30   ar
    48    26    45    1
    49    27    32   ar
    50    27    46    1
    51    28    31   ar
    52    28    47    1
    53    29    30   ar
    54    29    48    1
    55    31    33   ar
    56    32    33   ar
