@<TRIPOS>MOLECULE
IMPHY017904
 29 29 0 0 0
SMALL
GASTEIGER

@<TRIPOS>ATOM
      1 O           2.0000   -2.1900    0.0000 O.3     1  UNL1       -0.3947
      2 C           2.8660   -0.6900    0.0000 C.3     1  UNL1       -0.0141
      3 C           3.7320   -0.1900    0.0000 C.3     1  UNL1       -0.0442
      4 C           3.7320    0.8100    0.0000 C.3     1  UNL1       -0.0312
      5 C           2.0000   -0.1900    0.0000 C.3     1  UNL1       -0.0296
      6 C           2.8660    1.3100    0.0000 C.2     1  UNL1       -0.0709
      7 C           2.8660    2.3100    0.0000 C.3     1  UNL1       -0.0256
      8 C           2.0000    0.8100    0.0000 C.2     1  UNL1       -0.0842
      9 C           2.8660   -1.6900    0.0000 C.3     1  UNL1        0.0473
     10 C           3.7320    2.8100    0.0000 C.3     1  UNL1       -0.0590
     11 C           2.0000    2.8100    0.0000 C.3     1  UNL1       -0.0590
     12 H           3.4030   -1.0000    0.0000 H       1  UNL1        0.0326
     13 H           3.9441   -0.7726    0.0000 H       1  UNL1        0.0272
     14 H           4.3426   -0.0823    0.0000 H       1  UNL1        0.0272
     15 H           4.3426    0.7023    0.0000 H       1  UNL1        0.0310
     16 H           3.9441    1.3926    0.0000 H       1  UNL1        0.0310
     17 H           1.3894   -0.0823    0.0000 H       1  UNL1        0.0311
     18 H           1.7880   -0.7726    0.0000 H       1  UNL1        0.0311
     19 H           2.8660    2.9300    0.0000 H       1  UNL1        0.0340
     20 H           1.4631    1.1200    0.0000 H       1  UNL1        0.0572
     21 H           3.0781   -2.2726    0.0000 H       1  UNL1        0.0560
     22 H           3.4766   -1.5823    0.0000 H       1  UNL1        0.0560
     23 H           4.0420    2.2731    0.0000 H       1  UNL1        0.0235
     24 H           4.2690    3.1200    0.0000 H       1  UNL1        0.0235
     25 H           3.4220    3.3469    0.0000 H       1  UNL1        0.0235
     26 H           2.3100    3.3469    0.0000 H       1  UNL1        0.0235
     27 H           1.4631    3.1200    0.0000 H       1  UNL1        0.0235
     28 H           1.6900    2.2731    0.0000 H       1  UNL1        0.0235
     29 H           2.0000   -2.8100    0.0000 H       1  UNL1        0.2094
@<TRIPOS>BOND
     1     1     9    1
     2     1    29    1
     3     2     3    1
     4     2     5    1
     5     2     9    1
     6     2    12    1
     7     3     4    1
     8     3    13    1
     9     3    14    1
    10     4     6    1
    11     4    15    1
    12     4    16    1
    13     5     8    1
    14     5    17    1
    15     5    18    1
    16     6     7    1
    17     6     8    2
    18     7    10    1
    19     7    11    1
    20     7    19    1
    21     8    20    1
    22     9    21    1
    23     9    22    1
    24    10    23    1
    25    10    24    1
    26    10    25    1
    27    11    26    1
    28    11    27    1
    29    11    28    1
