@<TRIPOS>MOLECULE
IMPHY016316
 26 26 0 0 0
SMALL
GASTEIGER

@<TRIPOS>ATOM
      1 O           3.7320   -1.7780    0.0000 O.3     1  UNL1       -0.3875
      2 C           3.7320    1.2220    0.0000 C.3     1  UNL1       -0.0165
      3 C           4.5981    0.7220    0.0000 C.3     1  UNL1       -0.0418
      4 C           4.5981   -0.2780    0.0000 C.3     1  UNL1       -0.0222
      5 C           3.7320   -0.7780    0.0000 C.3     1  UNL1        0.0760
      6 C           2.8660    0.7220    0.0000 C.2     1  UNL1       -0.0769
      7 C           2.8660   -0.2780    0.0000 C.2     1  UNL1       -0.0480
      8 C           4.2320    2.0880    0.0000 C.3     1  UNL1       -0.0563
      9 C           3.2320    2.0880    0.0000 C.3     1  UNL1       -0.0563
     10 C           2.0000   -0.7780    0.0000 C.3     1  UNL1       -0.0414
     11 H           5.2087    0.6143    0.0000 H       1  UNL1        0.0274
     12 H           4.8101    1.3046    0.0000 H       1  UNL1        0.0274
     13 H           4.8101   -0.8606    0.0000 H       1  UNL1        0.0294
     14 H           5.2087   -0.1704    0.0000 H       1  UNL1        0.0294
     15 H           4.2690   -1.0880    0.0000 H       1  UNL1        0.0640
     16 H           2.3291    1.0320    0.0000 H       1  UNL1        0.0578
     17 H           4.7690    1.7780    0.0000 H       1  UNL1        0.0238
     18 H           4.5420    2.6250    0.0000 H       1  UNL1        0.0238
     19 H           3.6951    2.3980    0.0000 H       1  UNL1        0.0238
     20 H           3.7690    2.3980    0.0000 H       1  UNL1        0.0238
     21 H           2.9220    2.6250    0.0000 H       1  UNL1        0.0238
     22 H           2.6951    1.7780    0.0000 H       1  UNL1        0.0238
     23 H           1.6900   -0.2411    0.0000 H       1  UNL1        0.0275
     24 H           1.4631   -1.0880    0.0000 H       1  UNL1        0.0275
     25 H           2.3100   -1.3150    0.0000 H       1  UNL1        0.0275
     26 H           4.2690   -2.0880    0.0000 H       1  UNL1        0.2102
@<TRIPOS>BOND
     1     1     5    1
     2     1    26    1
     3     2     3    1
     4     2     6    1
     5     2     8    1
     6     2     9    1
     7     3     4    1
     8     3    11    1
     9     3    12    1
    10     4     5    1
    11     4    13    1
    12     4    14    1
    13     5     7    1
    14     5    15    1
    15     6     7    2
    16     6    16    1
    17     7    10    1
    18     8    17    1
    19     8    18    1
    20     8    19    1
    21     9    20    1
    22     9    21    1
    23     9    22    1
    24    10    23    1
    25    10    24    1
    26    10    25    1
