@<TRIPOS>MOLECULE
IMPHY000465
 68 74 0 0 0
SMALL
GASTEIGER

@<TRIPOS>ATOM
      1 C           6.9099    8.7297    0.0000 C.ar    1  UNL1        0.0520
      2 C           5.9194    8.6995    0.0000 C.ar    1  UNL1        0.0520
      3 C           7.4404    7.8870    0.0000 C.ar    1  UNL1        0.0822
      4 C           7.3800    9.6094    0.0000 C.ar    1  UNL1        0.2377
      5 C           5.4594    7.8265    0.0000 C.ar    1  UNL1        0.0822
      6 C           5.3990    9.5355    0.0000 C.ar    1  UNL1        0.2377
      7 C           6.9636    7.0106    0.0000 C.2     1  UNL1        0.3415
      8 C           8.4309    7.9306    0.0000 C.ar    1  UNL1        0.0520
      9 C           8.3705    9.6463    0.0000 C.ar    1  UNL1        0.2727
     10 O           6.8495   10.4555    0.0000 O.3     1  UNL1       -0.2830
     11 C           5.0028    7.0476    0.0000 C.2     1  UNL1        0.3415
     12 C           4.4689    7.7896    0.0000 C.ar    1  UNL1        0.0520
     13 C           4.4119    9.5053    0.0000 C.ar    1  UNL1        0.2727
     14 O           5.8657   10.4085    0.0000 O.3     1  UNL1       -0.2830
     15 O           7.4975    6.1679    0.0000 O.3     1  UNL1       -0.4424
     16 O           5.9597    6.9771    0.0000 O.2     1  UNL1       -0.2449
     17 C           8.8976    8.8036    0.0000 C.ar    1  UNL1        0.2377
     18 O           8.8405   10.5227    0.0000 O.3     1  UNL1       -0.2797
     19 O           5.4561    6.2686    0.0000 O.3     1  UNL1       -0.4426
     20 O           4.0996    7.0509    0.0000 O.2     1  UNL1       -0.2449
     21 C           3.9485    8.6290    0.0000 C.ar    1  UNL1        0.2377
     22 O           3.8847   10.3447    0.0000 O.3     1  UNL1       -0.2797
     23 C           5.4359    3.1561    0.0000 C.3     1  UNL1        0.2478
     24 O           9.8914    8.8405    0.0000 O.3     1  UNL1       -0.2830
     25 C           4.9927    5.4897    0.0000 C.3     1  UNL1        0.2420
     26 O           2.9580    8.5954    0.0000 O.3     1  UNL1       -0.2830
     27 C           4.9927    3.9317    0.0000 C.3     1  UNL1        0.2422
     28 C           6.3324    3.1561    0.0000 C.3     1  UNL1        0.2649
     29 C           5.4359    4.7040    0.0000 C.3     1  UNL1        0.2060
     30 O           4.0895    3.9317    0.0000 O.3     1  UNL1       -0.4426
     31 C           6.7790    3.9317    0.0000 C.3     1  UNL1        0.3255
     32 O           6.7857    2.3772    0.0000 O.3     1  UNL1       -0.2123
     33 O           6.3324    4.7040    0.0000 O.3     1  UNL1       -0.3133
     34 C           3.6396    4.7107    0.0000 C.2     1  UNL1        0.3415
     35 O           7.6754    3.9317    0.0000 O.3     1  UNL1       -0.4184
     36 C           2.7331    4.7241    0.0000 C.ar    1  UNL1        0.0822
     37 O           4.0895    5.4930    0.0000 O.2     1  UNL1       -0.2449
     38 C           8.1254    3.1528    0.0000 C.2     1  UNL1        0.3433
     39 C           1.8299    4.1970    0.0000 C.ar    1  UNL1        0.0521
     40 C           2.7398    5.7717    0.0000 C.ar    1  UNL1        0.0520
     41 C           9.0319    3.1561    0.0000 C.ar    1  UNL1        0.0823
     42 O           7.6788    2.3738    0.0000 O.2     1  UNL1       -0.2448
     43 C           1.8165    3.1427    0.0000 C.ar    1  UNL1        0.0522
     44 C           0.9166    4.7241    0.0000 C.ar    1  UNL1        0.2377
     45 C           1.8299    6.3055    0.0000 C.ar    1  UNL1        0.2377
     46 C           9.4785    3.9418    0.0000 C.ar    1  UNL1        0.0520
     47 C           9.4885    2.3738    0.0000 C.ar    1  UNL1        0.0520
     48 C           2.7264    2.6256    0.0000 C.ar    1  UNL1        0.0863
     49 C           0.9133    2.6122    0.0000 C.ar    1  UNL1        0.2377
     50 C           0.9166    5.7818    0.0000 C.ar    1  UNL1        0.2727
     51 O           0.0034    4.2037    0.0000 O.3     1  UNL1       -0.2830
     52 O           1.8332    7.3565    0.0000 O.3     1  UNL1       -0.2830
     53 C          10.3817    3.9452    0.0000 C.ar    1  UNL1        0.2377
     54 C          10.3917    2.3772    0.0000 C.ar    1  UNL1        0.2377
     55 C           2.7398    1.5781    0.0000 C.ar    1  UNL1        0.0522
     56 C           3.4079    3.0487    0.0000 C.2     1  UNL1        0.3880
     57 C           0.9166    1.5646    0.0000 C.ar    1  UNL1        0.2727
     58 O           0.0000    3.1259    0.0000 O.3     1  UNL1       -0.2830
     59 O           0.0034    6.3089    0.0000 O.3     1  UNL1       -0.2797
     60 C          10.8383    3.1628    0.0000 C.ar    1  UNL1        0.2727
     61 O          10.8316    4.7342    0.0000 O.3     1  UNL1       -0.2830
     62 O          10.8484    1.5949    0.0000 O.3     1  UNL1       -0.2830
     63 C           1.8332    1.0509    0.0000 C.ar    1  UNL1        0.2377
     64 O           3.3811    3.8512    0.0000 O.co2   1  UNL1       -0.2405
     65 O           4.1097    2.6693    0.0000 O.co2   1  UNL1       -0.2405
     66 O           0.0101    1.0341    0.0000 O.3     1  UNL1       -0.2797
     67 O          11.7515    3.1696    0.0000 O.3     1  UNL1       -0.2797
     68 O           1.8433    0.0000    0.0000 O.3     1  UNL1       -0.2830
@<TRIPOS>BOND
     1     1     2    1
     2     1     3   ar
     3     1     4   ar
     4     2     5   ar
     5     2     6   ar
     6     3     7    1
     7     3     8   ar
     8     4     9   ar
     9     4    10    1
    10     5    11    1
    11     5    12   ar
    12     6    13   ar
    13     6    14    1
    14     7    15    1
    15     7    16    2
    16     8    17   ar
    17     9    17   ar
    18     9    18    1
    19    11    19    1
    20    11    20    2
    21    12    21   ar
    22    13    21   ar
    23    13    22    1
    24    17    24    1
    25    19    25    1
    26    21    26    1
    27    23    15    1
    28    23    27    1
    29    23    28    1
    30    27    29    1
    31    27    30    1
    32    28    31    1
    33    28    32    1
    34    29    25    1
    35    29    33    1
    36    30    34    1
    37    31    33    1
    38    31    35    1
    39    34    36    1
    40    34    37    2
    41    35    38    1
    42    36    39   ar
    43    36    40   ar
    44    38    41    1
    45    38    42    2
    46    39    43    1
    47    39    44   ar
    48    40    45   ar
    49    41    46   ar
    50    41    47   ar
    51    43    48   ar
    52    43    49   ar
    53    44    50   ar
    54    44    51    1
    55    45    50   ar
    56    45    52    1
    57    46    53   ar
    58    47    54   ar
    59    48    55   ar
    60    48    56    1
    61    49    57   ar
    62    49    58    1
    63    50    59    1
    64    53    60   ar
    65    53    61    1
    66    54    60   ar
    67    54    62    1
    68    55    63   ar
    69    56    64   ar
    70    56    65   ar
    71    57    63   ar
    72    57    66    1
    73    60    67    1
    74    63    68    1
