@<TRIPOS>MOLECULE
IMPHY010867
 79 86 0 0 0
SMALL
GASTEIGER

@<TRIPOS>ATOM
      1 O           5.5440    1.5251    0.0000 O.3     1  UNL1       -0.4483
      2 O           5.5440    3.5944    0.0000 O.3     1  UNL1       -0.4485
      3 O           2.0520    3.5598    0.0000 O.3     1  UNL1       -0.4947
      4 O           6.6080   -3.6552    0.0000 O.3     1  UNL1       -0.4945
      5 O           8.0095   -3.3793    0.0000 O.3     1  UNL1       -0.5062
      6 N           2.9021   -0.0095    0.0000 N.3     1  UNL1       -0.2977
      7 N           9.9133    2.0499    0.0000 N.3     1  UNL1       -0.2978
      8 C           3.8001    0.5183    0.0000 C.3     1  UNL1        0.0433
      9 C           3.7841    1.5598    0.0000 C.ar    1  UNL1        0.0226
     10 C           9.0264    1.5469    0.0000 C.3     1  UNL1        0.0397
     11 C           2.9180    2.0598    0.0000 C.ar    1  UNL1        0.0039
     12 C           8.1513    2.0703    0.0000 C.ar    1  UNL1       -0.0231
     13 C           2.0000    0.5113    0.0000 C.3     1  UNL1        0.0033
     14 C           2.0080    1.5529    0.0000 C.3     1  UNL1       -0.0110
     15 C           4.0624   -0.4461    0.0000 C.3     1  UNL1       -0.0077
     16 C           8.1513    3.0492    0.0000 C.ar    1  UNL1       -0.0378
     17 C           9.9133    3.0696    0.0000 C.3     1  UNL1        0.0032
     18 C           9.0264    3.5726    0.0000 C.3     1  UNL1       -0.0144
     19 C           4.6501    2.0598    0.0000 C.ar    1  UNL1        0.1758
     20 C           9.1492    0.5551    0.0000 C.3     1  UNL1       -0.0079
     21 C           7.3096    1.5705    0.0000 C.ar    1  UNL1       -0.0107
     22 C           4.6501    3.0598    0.0000 C.ar    1  UNL1        0.1744
     23 C           6.4501    2.0390    0.0000 C.ar    1  UNL1        0.1709
     24 C           2.9180    3.0598    0.0000 C.ar    1  UNL1        0.1273
     25 C           6.4501    3.0806    0.0000 C.ar    1  UNL1        0.1709
     26 C           7.3096    3.5490    0.0000 C.ar    1  UNL1       -0.0121
     27 C           4.6595   -1.2474    0.0000 C.ar    1  UNL1       -0.0448
     28 C           2.9059   -1.0095    0.0000 C.3     1  UNL1       -0.0122
     29 C           3.7841    3.5598    0.0000 C.ar    1  UNL1        0.0263
     30 C           8.9002   -0.4128    0.0000 C.ar    1  UNL1       -0.0448
     31 C          10.7774    1.5466    0.0000 C.3     1  UNL1       -0.0122
     32 C           5.5087   -1.7745    0.0000 C.ar    1  UNL1       -0.0472
     33 C           6.4918   -1.9539    0.0000 C.ar    1  UNL1        0.0275
     34 C           8.3142   -1.2223    0.0000 C.ar    1  UNL1       -0.0472
     35 C           7.4724   -1.7609    0.0000 C.ar    1  UNL1        0.0273
     36 C           4.4054   -2.2043    0.0000 C.ar    1  UNL1       -0.0550
     37 C           9.4980   -1.2020    0.0000 C.ar    1  UNL1       -0.0550
     38 C           6.0377   -2.8337    0.0000 C.ar    1  UNL1        0.1279
     39 C           5.0548   -2.9517    0.0000 C.ar    1  UNL1       -0.0191
     40 C           8.2260   -2.4030    0.0000 C.ar    1  UNL1        0.1247
     41 C           9.1804   -2.1396    0.0000 C.ar    1  UNL1       -0.0193
     42 C           2.0520    4.5598    0.0000 C.3     1  UNL1        0.0788
     43 C           6.1818   -4.5598    0.0000 C.3     1  UNL1        0.0788
     44 H           4.5329    0.9489    0.0000 H       1  UNL1        0.0517
     45 H           9.7858    1.1651    0.0000 H       1  UNL1        0.0515
     46 H           1.3900    0.6221    0.0000 H       1  UNL1        0.0430
     47 H           1.7864   -0.0707    0.0000 H       1  UNL1        0.0430
     48 H           1.8035    2.1382    0.0000 H       1  UNL1        0.0327
     49 H           1.3964    1.4515    0.0000 H       1  UNL1        0.0327
     50 H           3.4478   -0.3638    0.0000 H       1  UNL1        0.0332
     51 H           4.6198   -0.1748    0.0000 H       1  UNL1        0.0332
     52 H          10.5242    2.9635    0.0000 H       1  UNL1        0.0430
     53 H          10.1224    3.6533    0.0000 H       1  UNL1        0.0430
     54 H           9.4200    4.0516    0.0000 H       1  UNL1        0.0326
     55 H           8.6218    4.0424    0.0000 H       1  UNL1        0.0326
     56 H           9.6426    0.1797    0.0000 H       1  UNL1        0.0332
     57 H           8.5304    0.5950    0.0000 H       1  UNL1        0.0332
     58 H           7.3210    0.9506    0.0000 H       1  UNL1        0.0659
     59 H           7.3210    4.1689    0.0000 H       1  UNL1        0.0658
     60 H           2.2859   -1.0119    0.0000 H       1  UNL1        0.0391
     61 H           2.9083   -1.6295    0.0000 H       1  UNL1        0.0391
     62 H           3.5259   -1.0071    0.0000 H       1  UNL1        0.0391
     63 H           3.7841    4.1798    0.0000 H       1  UNL1        0.0692
     64 H          10.4653    1.0109    0.0000 H       1  UNL1        0.0391
     65 H          11.3131    1.2345    0.0000 H       1  UNL1        0.0391
     66 H          11.0895    2.0824    0.0000 H       1  UNL1        0.0391
     67 H           5.2856   -2.3530    0.0000 H       1  UNL1        0.0627
     68 H           8.7398   -1.6731    0.0000 H       1  UNL1        0.0627
     69 H           3.8014   -2.3444    0.0000 H       1  UNL1        0.0621
     70 H          10.1100   -1.1027    0.0000 H       1  UNL1        0.0621
     71 H           4.8317   -3.5302    0.0000 H       1  UNL1        0.0654
     72 H           9.6060   -2.5904    0.0000 H       1  UNL1        0.0654
     73 H           2.6720    4.5598    0.0000 H       1  UNL1        0.0660
     74 H           2.0520    5.1798    0.0000 H       1  UNL1        0.0660
     75 H           1.4320    4.5598    0.0000 H       1  UNL1        0.0660
     76 H           8.4666   -3.7982    0.0000 H       1  UNL1        0.2922
     77 H           5.6210   -4.2955    0.0000 H       1  UNL1        0.0660
     78 H           5.9176   -5.1206    0.0000 H       1  UNL1        0.0660
     79 H           6.7427   -4.8240    0.0000 H       1  UNL1        0.0660
@<TRIPOS>BOND
     1     1    19    1
     2     1    23    1
     3     2    22    1
     4     2    25    1
     5     3    24    1
     6     3    42    1
     7     4    38    1
     8     4    43    1
     9     5    40    1
    10     5    76    1
    11     6     8    1
    12     6    13    1
    13     6    28    1
    14     7    10    1
    15     7    17    1
    16     7    31    1
    17     8     9    1
    18     8    15    1
    19     8    44    1
    20     9    11   ar
    21     9    19   ar
    22    10    12    1
    23    10    20    1
    24    10    45    1
    25    11    14    1
    26    11    24   ar
    27    12    16   ar
    28    12    21   ar
    29    13    14    1
    30    13    46    1
    31    13    47    1
    32    14    48    1
    33    14    49    1
    34    15    27    1
    35    15    50    1
    36    15    51    1
    37    16    18    1
    38    16    26   ar
    39    17    18    1
    40    17    52    1
    41    17    53    1
    42    18    54    1
    43    18    55    1
    44    19    22   ar
    45    20    30    1
    46    20    56    1
    47    20    57    1
    48    21    23   ar
    49    21    58    1
    50    22    29   ar
    51    23    25   ar
    52    24    29   ar
    53    25    26   ar
    54    26    59    1
    55    27    32   ar
    56    27    36   ar
    57    28    60    1
    58    28    61    1
    59    28    62    1
    60    29    63    1
    61    30    34   ar
    62    30    37   ar
    63    31    64    1
    64    31    65    1
    65    31    66    1
    66    32    33   ar
    67    32    67    1
    68    33    35    1
    69    33    38   ar
    70    34    35   ar
    71    34    68    1
    72    35    40   ar
    73    36    39   ar
    74    36    69    1
    75    37    41   ar
    76    37    70    1
    77    38    39   ar
    78    39    71    1
    79    40    41   ar
    80    41    72    1
    81    42    73    1
    82    42    74    1
    83    42    75    1
    84    43    77    1
    85    43    78    1
    86    43    79    1
