@<TRIPOS>MOLECULE
IMPHY011236
 22 23 0 0 0
SMALL
GASTEIGER

@<TRIPOS>ATOM
      1 O           6.0290   -0.3020    0.0000 O.2     1  UNL1       -0.4183
      2 O           4.2690   -1.2673    0.0000 O.3     1  UNL1       -0.4885
      3 O           2.5369   -0.2673    0.0000 O.3     1  UNL1       -0.5032
      4 O           7.7991   -0.2915    0.0000 O.2     1  UNL1       -0.2452
      5 C           5.1350    1.2327    0.0000 C.ar    1  UNL1        0.0215
      6 C           5.1350    0.2327    0.0000 C.ar    1  UNL1        0.1841
      7 C           4.2690   -0.2673    0.0000 C.ar    1  UNL1        0.2046
      8 C           4.2690    1.7327    0.0000 C.ar    1  UNL1       -0.0474
      9 C           3.4030    0.2327    0.0000 C.ar    1  UNL1        0.1622
     10 C           6.0290    1.7673    0.0000 C.ar    1  UNL1       -0.0442
     11 C           3.4030    1.2327    0.0000 C.ar    1  UNL1       -0.0157
     12 C           6.9350    1.2535    0.0000 C.ar    1  UNL1        0.0236
     13 C           6.9350    0.2119    0.0000 C.ar    1  UNL1        0.3373
     14 C           3.4030   -1.7673    0.0000 C.3     1  UNL1        0.0791
     15 H           4.2690    2.3527    0.0000 H       1  UNL1        0.0626
     16 H           6.0218    2.3873    0.0000 H       1  UNL1        0.0627
     17 H           2.8660    1.5427    0.0000 H       1  UNL1        0.0655
     18 H           7.4708    1.5656    0.0000 H       1  UNL1        0.0689
     19 H           3.0930   -1.2304    0.0000 H       1  UNL1        0.0660
     20 H           2.8660   -2.0773    0.0000 H       1  UNL1        0.0660
     21 H           3.7130   -2.3043    0.0000 H       1  UNL1        0.0660
     22 H           2.0000    0.0427    0.0000 H       1  UNL1        0.2923
@<TRIPOS>BOND
     1     1     6   ar
     2     1    13   ar
     3     2     7    1
     4     2    14    1
     5     3     9    1
     6     3    22    1
     7     4    13    2
     8     5     6   ar
     9     5     8   ar
    10     5    10   ar
    11     6     7   ar
    12     7     9   ar
    13     8    11   ar
    14     8    15    1
    15     9    11   ar
    16    10    12   ar
    17    10    16    1
    18    11    17    1
    19    12    13   ar
    20    12    18    1
    21    14    19    1
    22    14    20    1
    23    14    21    1
