@<TRIPOS>MOLECULE
IMPHY008151
 37 39 0 0 0
SMALL
GASTEIGER

@<TRIPOS>ATOM
      1 O           4.6381   -1.0467    0.0000 O.2     1  UNL1       -0.4873
      2 O           8.2103   -0.8168    0.0000 O.2     1  UNL1       -0.4870
      3 O           6.3981    1.9879    0.0000 O.2     1  UNL1       -0.2871
      4 O           6.3981   -2.0121    0.0000 O.2     1  UNL1       -0.2801
      5 C           3.7320    0.5087    0.0000 C.3     1  UNL1       -0.0003
      6 C           4.6381    1.0226    0.0000 C.3     1  UNL1       -0.0143
      7 C           2.8680    1.0121    0.0000 C.3     1  UNL1       -0.0405
      8 C           5.5320    0.4879    0.0000 C.2     1  UNL1        0.0456
      9 C           3.7320   -0.5329    0.0000 C.3     1  UNL1        0.0931
     10 C           8.2103    0.7927    0.0000 C.3     1  UNL1        0.0227
     11 C           7.2641    0.4879    0.0000 C.2     1  UNL1        0.0512
     12 C           5.5320   -0.5121    0.0000 C.2     1  UNL1        0.1775
     13 C           6.3981    0.9879    0.0000 C.2     1  UNL1        0.1928
     14 C           7.2641   -0.5121    0.0000 C.2     1  UNL1        0.1778
     15 C           8.7939   -0.0121    0.0000 C.3     1  UNL1        0.0965
     16 C           6.3981   -1.0121    0.0000 C.2     1  UNL1        0.2622
     17 C           2.0000    0.5154    0.0000 C.3     1  UNL1       -0.0623
     18 C           2.8718    2.0121    0.0000 C.3     1  UNL1       -0.0623
     19 C           8.5210    1.7432    0.0000 C.3     1  UNL1       -0.0550
     20 H           3.7370    1.3587    0.0000 H       1  UNL1        0.0339
     21 H           5.0427    1.4924    0.0000 H       1  UNL1        0.0319
     22 H           4.2445    1.5016    0.0000 H       1  UNL1        0.0319
     23 H           2.3322    1.3242    0.0000 H       1  UNL1        0.0299
     24 H           3.1212   -0.4268    0.0000 H       1  UNL1        0.0699
     25 H           3.5230   -1.1166    0.0000 H       1  UNL1        0.0699
     26 H           9.0500    0.9245    0.0000 H       1  UNL1        0.0381
     27 H           9.2548   -0.4268    0.0000 H       1  UNL1        0.0702
     28 H           9.2548    0.4027    0.0000 H       1  UNL1        0.0702
     29 H           1.6921    1.0536    0.0000 H       1  UNL1        0.0232
     30 H           1.4619    0.2075    0.0000 H       1  UNL1        0.0232
     31 H           2.3079   -0.0227    0.0000 H       1  UNL1        0.0232
     32 H           3.4918    2.0097    0.0000 H       1  UNL1        0.0232
     33 H           2.8742    2.6321    0.0000 H       1  UNL1        0.0232
     34 H           2.2518    2.0145    0.0000 H       1  UNL1        0.0232
     35 H           9.1103    1.5506    0.0000 H       1  UNL1        0.0237
     36 H           8.7136    2.3325    0.0000 H       1  UNL1        0.0237
     37 H           7.9317    1.9358    0.0000 H       1  UNL1        0.0237
@<TRIPOS>BOND
     1     1     9    1
     2     1    12    1
     3     2    14    1
     4     2    15    1
     5     3    13    2
     6     4    16    2
     7     5     6    1
     8     5     7    1
     9     5     9    1
    10     5    20    1
    11     6     8    1
    12     6    21    1
    13     6    22    1
    14     7    17    1
    15     7    18    1
    16     7    23    1
    17     8    12    2
    18     8    13    1
    19     9    24    1
    20     9    25    1
    21    10    11    1
    22    10    15    1
    23    10    19    1
    24    10    26    1
    25    11    13    1
    26    11    14    2
    27    12    16    1
    28    14    16    1
    29    15    27    1
    30    15    28    1
    31    17    29    1
    32    17    30    1
    33    17    31    1
    34    18    32    1
    35    18    33    1
    36    18    34    1
    37    19    35    1
    38    19    36    1
    39    19    37    1
