@<TRIPOS>MOLECULE
IMPHY012908
 37 39 0 0 0
SMALL
GASTEIGER

@<TRIPOS>ATOM
      1 C           3.7320   -0.0492    0.0000 C.3     1  UNL1       -0.0077
      2 C           2.8660    0.4508    0.0000 C.3     1  UNL1       -0.0126
      3 C           2.8658   -0.5496    0.0000 C.3     1  UNL1       -0.0385
      4 C           4.5981    0.4508    0.0000 C.3     1  UNL1       -0.0183
      5 C           3.7160   -1.0907    0.0000 C.3     1  UNL1       -0.0102
      6 C           4.5981    1.4508    0.0000 C.3     1  UNL1       -0.0283
      7 C           2.8660    1.4508    0.0000 C.2     1  UNL1       -0.0728
      8 C           5.5081   -0.0560    0.0000 C.3     1  UNL1       -0.0285
      9 C           5.4641    0.9508    0.0000 C.3     1  UNL1       -0.0584
     10 C           4.6140   -1.6184    0.0000 C.2     1  UNL1       -0.0817
     11 C           3.7320    1.9508    0.0000 C.2     1  UNL1       -0.0842
     12 C           3.2060   -1.9508    0.0000 C.3     1  UNL1       -0.0558
     13 C           2.7724   -1.4218    0.0000 C.3     1  UNL1       -0.0558
     14 C           5.5161   -1.0976    0.0000 C.2     1  UNL1       -0.0869
     15 C           2.0000    1.9508    0.0000 C.3     1  UNL1       -0.0435
     16 H           2.2460    0.4509    0.0000 H       1  UNL1        0.0352
     17 H           2.2552   -0.6572    0.0000 H       1  UNL1        0.0277
     18 H           3.0779   -1.1322    0.0000 H       1  UNL1        0.0277
     19 H           5.2087    1.3432    0.0000 H       1  UNL1        0.0313
     20 H           4.8101    2.0335    0.0000 H       1  UNL1        0.0313
     21 H           6.1197   -0.1574    0.0000 H       1  UNL1        0.0313
     22 H           5.7126    0.5293    0.0000 H       1  UNL1        0.0313
     23 H           5.7741    0.4139    0.0000 H       1  UNL1        0.0235
     24 H           6.0010    1.2608    0.0000 H       1  UNL1        0.0235
     25 H           5.1541    1.4878    0.0000 H       1  UNL1        0.0235
     26 H           4.6116   -2.2384    0.0000 H       1  UNL1        0.0575
     27 H           3.7320    2.5708    0.0000 H       1  UNL1        0.0572
     28 H           2.6727   -1.6347    0.0000 H       1  UNL1        0.0238
     29 H           2.8898   -2.4842    0.0000 H       1  UNL1        0.0238
     30 H           3.7393   -2.2670    0.0000 H       1  UNL1        0.0238
     31 H           2.5671   -0.8368    0.0000 H       1  UNL1        0.0238
     32 H           2.1874   -1.6271    0.0000 H       1  UNL1        0.0238
     33 H           2.9777   -2.0068    0.0000 H       1  UNL1        0.0238
     34 H           6.0542   -1.4055    0.0000 H       1  UNL1        0.0569
     35 H           2.3100    2.4878    0.0000 H       1  UNL1        0.0274
     36 H           1.4631    2.2608    0.0000 H       1  UNL1        0.0274
     37 H           1.6900    1.4139    0.0000 H       1  UNL1        0.0274
@<TRIPOS>BOND
     1     1     2    1
     2     1     3    1
     3     1     4    1
     4     1     5    1
     5     2     3    1
     6     2     7    1
     7     2    16    1
     8     3    17    1
     9     3    18    1
    10     4     6    1
    11     4     8    1
    12     4     9    1
    13     5    10    1
    14     5    12    1
    15     5    13    1
    16     6    11    1
    17     6    19    1
    18     6    20    1
    19     7    11    2
    20     7    15    1
    21     8    14    1
    22     8    21    1
    23     8    22    1
    24     9    23    1
    25     9    24    1
    26     9    25    1
    27    10    14    2
    28    10    26    1
    29    11    27    1
    30    12    28    1
    31    12    29    1
    32    12    30    1
    33    13    31    1
    34    13    32    1
    35    13    33    1
    36    14    34    1
    37    15    35    1
    38    15    36    1
    39    15    37    1
