@<TRIPOS>MOLECULE
IMPHY011191
 144 151 0 0 0
SMALL
GASTEIGER

@<TRIPOS>ATOM
      1 O           7.7331   -1.4673    0.0000 O.3     1  UNL1       -0.3449
      2 O           8.6258    7.5746    0.0000 O.3     1  UNL1       -0.3912
      3 O           6.0010   -1.4673    0.0000 O.3     1  UNL1       -0.3431
      4 O           7.7331   -3.4673    0.0000 O.3     1  UNL1       -0.3841
      5 O           6.0010   -4.4673    0.0000 O.3     1  UNL1       -0.3864
      6 O           4.2690   -3.4673    0.0000 O.3     1  UNL1       -0.3402
      7 O           5.0082   10.3876    0.0000 O.3     1  UNL1       -0.3907
      8 O           5.1350   -4.9673    0.0000 O.3     1  UNL1       -0.3405
      9 O           2.5369   -4.4673    0.0000 O.3     1  UNL1       -0.3841
     10 O           2.5369   -6.4673    0.0000 O.3     1  UNL1       -0.3864
     11 O           4.2690   -7.4673    0.0000 O.3     1  UNL1       -0.3865
     12 O           6.0010   -7.4673    0.0000 O.3     1  UNL1       -0.3461
     13 O           7.7331   -7.4673    0.0000 O.3     1  UNL1       -0.3431
     14 O           6.0010   -9.4673    0.0000 O.3     1  UNL1       -0.3841
     15 O           7.7331  -10.4673    0.0000 O.3     1  UNL1       -0.3864
     16 O           9.4651   -9.4673    0.0000 O.3     1  UNL1       -0.3866
     17 C           7.7609    2.6018    0.0000 C.3     1  UNL1       -0.0194
     18 C           7.7570    1.6018    0.0000 C.3     1  UNL1       -0.0193
     19 C           6.8924    2.1052    0.0000 C.3     1  UNL1       -0.0401
     20 C           8.6288    3.0985    0.0000 C.3     1  UNL1       -0.0289
     21 C           8.6211    1.0985    0.0000 C.3     1  UNL1       -0.0273
     22 C           8.6489    4.1399    0.0000 C.3     1  UNL1       -0.0231
     23 C           6.8528    3.1122    0.0000 C.3     1  UNL1       -0.0460
     24 C           7.7529    4.6711    0.0000 C.3     1  UNL1       -0.0232
     25 C           6.8451    1.0985    0.0000 C.3     1  UNL1       -0.0442
     26 C           9.4929    2.5952    0.0000 C.3     1  UNL1       -0.0489
     27 C           9.4890    1.5952    0.0000 C.3     1  UNL1       -0.0488
     28 C           6.8488    4.1538    0.0000 C.3     1  UNL1       -0.0463
     29 C           8.6332    0.0569    0.0000 C.3     1  UNL1       -0.0052
     30 C           7.9825    5.6808    0.0000 C.3     1  UNL1       -0.0302
     31 C           9.4246    4.8259    0.0000 C.3     1  UNL1       -0.0466
     32 C           6.8330    0.0569    0.0000 C.3     1  UNL1       -0.0255
     33 C           7.7331   -0.4673    0.0000 C.3     1  UNL1        0.0672
     34 C           9.0136    5.7763    0.0000 C.3     1  UNL1       -0.0489
     35 C           9.5091    3.6300    0.0000 C.3     1  UNL1       -0.0588
     36 C           6.8927    5.1811    0.0000 C.3     1  UNL1       -0.0588
     37 C           7.3233    6.4328    0.0000 C.3     1  UNL1       -0.0142
     38 C           9.6331    0.0647    0.0000 C.3     1  UNL1       -0.0572
     39 C           9.1398   -0.8052    0.0000 C.3     1  UNL1       -0.0572
     40 C           7.6449    7.3797    0.0000 C.3     1  UNL1        0.0615
     41 C           6.3425    6.2379    0.0000 C.3     1  UNL1       -0.0598
     42 C           6.8671   -1.9673    0.0000 C.3     1  UNL1        0.1881
     43 C           6.9858    8.1316    0.0000 C.3     1  UNL1       -0.0080
     44 C           6.8671   -2.9673    0.0000 C.3     1  UNL1        0.1341
     45 C           6.0010   -3.4673    0.0000 C.3     1  UNL1        0.1143
     46 C           7.3074    9.0785    0.0000 C.2     1  UNL1       -0.0804
     47 C           5.1350   -1.9673    0.0000 C.3     1  UNL1        0.0877
     48 C           5.1350   -2.9673    0.0000 C.3     1  UNL1        0.1160
     49 C           6.6482    9.8305    0.0000 C.2     1  UNL1       -0.0514
     50 C           4.2690   -1.4673    0.0000 C.3     1  UNL1       -0.0361
     51 C           5.6674    9.6356    0.0000 C.3     1  UNL1        0.0650
     52 C           6.9698   10.7773    0.0000 C.3     1  UNL1       -0.0416
     53 C           4.2690   -4.4673    0.0000 C.3     1  UNL1        0.1884
     54 C           3.4030   -4.9673    0.0000 C.3     1  UNL1        0.1341
     55 C           3.4030   -5.9673    0.0000 C.3     1  UNL1        0.1141
     56 C           5.1350   -5.9673    0.0000 C.3     1  UNL1        0.1134
     57 C           4.2690   -6.4673    0.0000 C.3     1  UNL1        0.1119
     58 C           6.0010   -6.4673    0.0000 C.3     1  UNL1        0.0796
     59 C           6.8671   -7.9673    0.0000 C.3     1  UNL1        0.1879
     60 C           6.8671   -8.9673    0.0000 C.3     1  UNL1        0.1341
     61 C           7.7331   -9.4673    0.0000 C.3     1  UNL1        0.1140
     62 C           8.5991   -7.9673    0.0000 C.3     1  UNL1        0.0873
     63 C           8.5991   -8.9673    0.0000 C.3     1  UNL1        0.1095
     64 C           9.4651   -7.4673    0.0000 C.3     1  UNL1       -0.0361
     65 H           6.4958    2.5817    0.0000 H       1  UNL1        0.0276
     66 H           6.4921    1.6317    0.0000 H       1  UNL1        0.0276
     67 H           9.3698    3.5150    0.0000 H       1  UNL1        0.0312
     68 H           9.3589    0.6763    0.0000 H       1  UNL1        0.0312
     69 H           6.2416    3.2159    0.0000 H       1  UNL1        0.0271
     70 H           6.6460    2.5277    0.0000 H       1  UNL1        0.0271
     71 H           6.6428    1.6846    0.0000 H       1  UNL1        0.0272
     72 H           6.2330    0.9995    0.0000 H       1  UNL1        0.0272
     73 H          10.1031    2.4851    0.0000 H       1  UNL1        0.0268
     74 H           9.7072    3.1769    0.0000 H       1  UNL1        0.0268
     75 H           9.6989    1.0117    0.0000 H       1  UNL1        0.0268
     76 H          10.1000    1.7005    0.0000 H       1  UNL1        0.0268
     77 H           6.6375    4.7367    0.0000 H       1  UNL1        0.0271
     78 H           6.2384    4.0454    0.0000 H       1  UNL1        0.0271
     79 H           8.2973    6.4704    0.0000 H       1  UNL1        0.0310
     80 H           9.7842    4.3208    0.0000 H       1  UNL1        0.0271
     81 H           9.9646    5.1304    0.0000 H       1  UNL1        0.0271
     82 H           6.2234    0.1701    0.0000 H       1  UNL1        0.0290
     83 H           6.6172   -0.5243    0.0000 H       1  UNL1        0.0290
     84 H           7.1956   -0.7763    0.0000 H       1  UNL1        0.0602
     85 H           9.6053    5.9612    0.0000 H       1  UNL1        0.0268
     86 H           8.8918    6.3842    0.0000 H       1  UNL1        0.0268
     87 H           9.1929    3.0966    0.0000 H       1  UNL1        0.0235
     88 H          10.0424    3.3138    0.0000 H       1  UNL1        0.0235
     89 H           9.8253    4.1633    0.0000 H       1  UNL1        0.0235
     90 H           7.2089    5.7144    0.0000 H       1  UNL1        0.0235
     91 H           6.3594    5.4973    0.0000 H       1  UNL1        0.0235
     92 H           6.5765    4.6478    0.0000 H       1  UNL1        0.0235
     93 H           7.1239    5.8458    0.0000 H       1  UNL1        0.0326
     94 H           8.6053   -1.1193    0.0000 H       1  UNL1        0.0236
     95 H           9.6379   -0.5553    0.0000 H       1  UNL1        0.0236
     96 H          10.2531    0.0694    0.0000 H       1  UNL1        0.0236
     97 H           9.6283    0.6846    0.0000 H       1  UNL1        0.0236
     98 H           9.4539   -1.3397    0.0000 H       1  UNL1        0.0236
     99 H           9.6743   -0.4911    0.0000 H       1  UNL1        0.0236
    100 H           7.8444    7.9667    0.0000 H       1  UNL1        0.0599
    101 H           6.2216    6.8460    0.0000 H       1  UNL1        0.0233
    102 H           5.7344    6.1171    0.0000 H       1  UNL1        0.0233
    103 H           6.4633    5.6298    0.0000 H       1  UNL1        0.0233
    104 H           7.4040   -2.2773    0.0000 H       1  UNL1        0.0937
    105 H           6.4422    8.4300    0.0000 H       1  UNL1        0.0332
    106 H           6.5976    7.6482    0.0000 H       1  UNL1        0.0332
    107 H           8.8252    8.1616    0.0000 H       1  UNL1        0.2098
    108 H           6.8671   -3.5873    0.0000 H       1  UNL1        0.0671
    109 H           5.4641   -3.7773    0.0000 H       1  UNL1        0.0648
    110 H           7.9155    9.1993    0.0000 H       1  UNL1        0.0573
    111 H           5.1350   -1.3473    0.0000 H       1  UNL1        0.0621
    112 H           4.5981   -2.6573    0.0000 H       1  UNL1        0.0650
    113 H           8.2700   -3.1573    0.0000 H       1  UNL1        0.2101
    114 H           4.5790   -0.9304    0.0000 H       1  UNL1        0.0255
    115 H           3.7320   -1.1573    0.0000 H       1  UNL1        0.0255
    116 H           3.9590   -2.0043    0.0000 H       1  UNL1        0.0255
    117 H           6.5380   -4.7773    0.0000 H       1  UNL1        0.2100
    118 H           5.1372    9.3141    0.0000 H       1  UNL1        0.0604
    119 H           5.8920    9.0577    0.0000 H       1  UNL1        0.0604
    120 H           7.5569   10.5779    0.0000 H       1  UNL1        0.0275
    121 H           7.1692   11.3644    0.0000 H       1  UNL1        0.0275
    122 H           6.3828   10.9768    0.0000 H       1  UNL1        0.0275
    123 H           3.7320   -4.1573    0.0000 H       1  UNL1        0.0938
    124 H           3.9650   -4.3473    0.0000 H       1  UNL1        0.0671
    125 H           4.4001   10.2667    0.0000 H       1  UNL1        0.2098
    126 H           3.4030   -6.5873    0.0000 H       1  UNL1        0.0648
    127 H           5.6720   -5.6573    0.0000 H       1  UNL1        0.0647
    128 H           4.8059   -6.7773    0.0000 H       1  UNL1        0.0647
    129 H           2.0000   -4.7773    0.0000 H       1  UNL1        0.2101
    130 H           6.6116   -6.5750    0.0000 H       1  UNL1        0.0587
    131 H           6.2131   -5.8847    0.0000 H       1  UNL1        0.0587
    132 H           2.5369   -7.0873    0.0000 H       1  UNL1        0.2100
    133 H           3.7320   -7.7773    0.0000 H       1  UNL1        0.2100
    134 H           6.8671   -7.3473    0.0000 H       1  UNL1        0.0937
    135 H           6.3301   -8.6573    0.0000 H       1  UNL1        0.0671
    136 H           7.1962   -9.7773    0.0000 H       1  UNL1        0.0648
    137 H           8.5991   -7.3473    0.0000 H       1  UNL1        0.0621
    138 H           8.5991   -9.5873    0.0000 H       1  UNL1        0.0646
    139 H           6.0010  -10.0873    0.0000 H       1  UNL1        0.2101
    140 H           9.7751   -8.0043    0.0000 H       1  UNL1        0.0255
    141 H          10.0021   -7.1573    0.0000 H       1  UNL1        0.0255
    142 H           9.1551   -6.9304    0.0000 H       1  UNL1        0.0255
    143 H           8.2700  -10.7773    0.0000 H       1  UNL1        0.2100
    144 H          10.0021   -9.1573    0.0000 H       1  UNL1        0.2100
@<TRIPOS>BOND
     1    33     1    1
     2    42     1    1
     3     2    40    1
     4     2   107    1
     5     3    42    1
     6     3    47    1
     7    44     4    1
     8     4   113    1
     9    45     5    1
    10     5   117    1
    11    48     6    1
    12    53     6    1
    13     7    51    1
    14     7   125    1
    15     8    53    1
    16     8    56    1
    17    54     9    1
    18     9   129    1
    19    55    10    1
    20    10   132    1
    21    57    11    1
    22    11   133    1
    23    12    58    1
    24    59    12    1
    25    13    59    1
    26    13    62    1
    27    60    14    1
    28    14   139    1
    29    61    15    1
    30    15   143    1
    31    63    16    1
    32    16   144    1
    33    17    18    1
    34    17    19    1
    35    17    20    1
    36    17    23    1
    37    18    19    1
    38    18    21    1
    39    18    25    1
    40    19    65    1
    41    19    66    1
    42    20    22    1
    43    20    26    1
    44    20    67    1
    45    21    27    1
    46    21    29    1
    47    21    68    1
    48    22    24    1
    49    22    31    1
    50    22    35    1
    51    23    28    1
    52    23    69    1
    53    23    70    1
    54    24    28    1
    55    24    30    1
    56    24    36    1
    57    25    32    1
    58    25    71    1
    59    25    72    1
    60    26    27    1
    61    26    73    1
    62    26    74    1
    63    27    75    1
    64    27    76    1
    65    28    77    1
    66    28    78    1
    67    29    33    1
    68    29    38    1
    69    29    39    1
    70    30    34    1
    71    30    37    1
    72    30    79    1
    73    31    34    1
    74    31    80    1
    75    31    81    1
    76    32    33    1
    77    32    82    1
    78    32    83    1
    79    33    84    1
    80    34    85    1
    81    34    86    1
    82    35    87    1
    83    35    88    1
    84    35    89    1
    85    36    90    1
    86    36    91    1
    87    36    92    1
    88    37    40    1
    89    37    41    1
    90    37    93    1
    91    38    95    1
    92    38    96    1
    93    38    97    1
    94    39    94    1
    95    39    98    1
    96    39    99    1
    97    40    43    1
    98    40   100    1
    99    41   101    1
   100    41   102    1
   101    41   103    1
   102    42    44    1
   103    42   104    1
   104    43    46    1
   105    43   105    1
   106    43   106    1
   107    44    45    1
   108    44   108    1
   109    45    48    1
   110    45   109    1
   111    46    49    2
   112    46   110    1
   113    47    48    1
   114    47    50    1
   115    47   111    1
   116    48   112    1
   117    49    51    1
   118    49    52    1
   119    50   114    1
   120    50   115    1
   121    50   116    1
   122    51   118    1
   123    51   119    1
   124    52   120    1
   125    52   121    1
   126    52   122    1
   127    53    54    1
   128    53   123    1
   129    54    55    1
   130    54   124    1
   131    55    57    1
   132    55   126    1
   133    56    57    1
   134    56    58    1
   135    56   127    1
   136    57   128    1
   137    58   130    1
   138    58   131    1
   139    59    60    1
   140    59   134    1
   141    60    61    1
   142    60   135    1
   143    61    63    1
   144    61   136    1
   145    62    63    1
   146    62    64    1
   147    62   137    1
   148    63   138    1
   149    64   140    1
   150    64   141    1
   151    64   142    1
