@<TRIPOS>MOLECULE
IMPHY012575
 61 64 0 0 0
SMALL
GASTEIGER

@<TRIPOS>ATOM
      1 O           6.1940   -0.8950    0.0000 O.3     1  UNL1       -0.4828
      2 O           8.3380    1.1735    0.0000 O.3     1  UNL1       -0.4906
      3 O           7.6067   -2.2516    0.0000 O.3     1  UNL1       -0.4942
      4 O           2.7044    0.0092    0.0000 O.3     1  UNL1       -0.5064
      5 O          10.9775   -1.1707    0.0000 O.3     1  UNL1       -0.5062
      6 C           6.6907    0.6382    0.0000 C.3     1  UNL1        0.0631
      7 C           6.9997   -0.3128    0.0000 C.3     1  UNL1        0.1419
      8 C           5.6966    0.6357    0.0000 C.ar    1  UNL1        0.0050
      9 C           7.3598    1.3814    0.0000 C.3     1  UNL1        0.1002
     10 C           7.9778   -0.5207    0.0000 C.ar    1  UNL1        0.0770
     11 C           5.3902   -0.3100    0.0000 C.ar    1  UNL1        0.1286
     12 C           8.6470    0.2224    0.0000 C.ar    1  UNL1        0.1342
     13 C           5.0150    1.4152    0.0000 C.ar    1  UNL1       -0.0477
     14 C           8.2844   -1.5162    0.0000 C.ar    1  UNL1        0.1372
     15 C           4.3810   -0.5418    0.0000 C.ar    1  UNL1        0.0221
     16 C           4.0007    1.2068    0.0000 C.ar    1  UNL1       -0.0017
     17 C           9.3016   -1.7406    0.0000 C.ar    1  UNL1        0.0399
     18 C           9.6690    0.0216    0.0000 C.ar    1  UNL1        0.0225
     19 C           3.6816    0.2218    0.0000 C.ar    1  UNL1        0.1238
     20 C           9.9986   -0.9666    0.0000 C.ar    1  UNL1        0.1273
     21 C           3.3338    1.9520    0.0000 C.3     1  UNL1       -0.0058
     22 C           9.6069   -2.6929    0.0000 C.3     1  UNL1       -0.0023
     23 C           3.6457    2.9021    0.0000 C.2     1  UNL1       -0.0809
     24 C          10.5843   -2.9046    0.0000 C.2     1  UNL1       -0.0807
     25 C           7.9047   -3.2061    0.0000 C.3     1  UNL1        0.0788
     26 C           2.9788    3.6472    0.0000 C.2     1  UNL1       -0.0793
     27 C          10.8896   -3.8568    0.0000 C.2     1  UNL1       -0.0793
     28 C           3.2906    4.5974    0.0000 C.3     1  UNL1       -0.0440
     29 C           2.0000    3.4422    0.0000 C.3     1  UNL1       -0.0440
     30 C          11.8669   -4.0685    0.0000 C.3     1  UNL1       -0.0440
     31 C          10.2176   -4.5974    0.0000 C.3     1  UNL1       -0.0440
     32 H           6.3439    1.4143    0.0000 H       1  UNL1        0.0423
     33 H           7.1753   -1.1445    0.0000 H       1  UNL1        0.0794
     34 H           7.5921    1.9562    0.0000 H       1  UNL1        0.0704
     35 H           6.8340    1.7099    0.0000 H       1  UNL1        0.0704
     36 H           5.2129    2.0027    0.0000 H       1  UNL1        0.0625
     37 H           4.1968   -1.1338    0.0000 H       1  UNL1        0.0691
     38 H          10.0786    0.4871    0.0000 H       1  UNL1        0.0691
     39 H           2.7873    2.2447    0.0000 H       1  UNL1        0.0357
     40 H           2.9506    1.4645    0.0000 H       1  UNL1        0.0357
     41 H           8.9926   -2.7768    0.0000 H       1  UNL1        0.0358
     42 H           9.5829   -3.3124    0.0000 H       1  UNL1        0.0358
     43 H           4.2525    3.0292    0.0000 H       1  UNL1        0.0575
     44 H          11.0009   -2.4454    0.0000 H       1  UNL1        0.0575
     45 H           2.5156   -0.5813    0.0000 H       1  UNL1        0.2921
     46 H          11.3906   -0.7083    0.0000 H       1  UNL1        0.2921
     47 H           7.3129   -3.3909    0.0000 H       1  UNL1        0.0660
     48 H           8.0895   -3.7980    0.0000 H       1  UNL1        0.0660
     49 H           8.4966   -3.0214    0.0000 H       1  UNL1        0.0660
     50 H           3.8797    4.4040    0.0000 H       1  UNL1        0.0274
     51 H           3.4840    5.1864    0.0000 H       1  UNL1        0.0274
     52 H           2.7015    4.7907    0.0000 H       1  UNL1        0.0274
     53 H           1.8729    4.0491    0.0000 H       1  UNL1        0.0274
     54 H           1.3932    3.3152    0.0000 H       1  UNL1        0.0274
     55 H           2.1271    2.8354    0.0000 H       1  UNL1        0.0274
     56 H          11.7357   -4.6744    0.0000 H       1  UNL1        0.0274
     57 H          12.4729   -4.1997    0.0000 H       1  UNL1        0.0274
     58 H          11.9982   -3.4625    0.0000 H       1  UNL1        0.0274
     59 H           9.7585   -4.1807    0.0000 H       1  UNL1        0.0274
     60 H           9.8010   -5.0565    0.0000 H       1  UNL1        0.0274
     61 H          10.6768   -5.0140    0.0000 H       1  UNL1        0.0274
@<TRIPOS>BOND
     1     1     7    1
     2     1    11    1
     3     2     9    1
     4     2    12    1
     5     3    14    1
     6     3    25    1
     7     4    19    1
     8     4    45    1
     9     5    20    1
    10     5    46    1
    11     6     7    1
    12     6     8    1
    13     6     9    1
    14     6    32    1
    15     7    10    1
    16     7    33    1
    17     8    11   ar
    18     8    13   ar
    19     9    34    1
    20     9    35    1
    21    10    12   ar
    22    10    14   ar
    23    11    15   ar
    24    12    18   ar
    25    13    16   ar
    26    13    36    1
    27    14    17   ar
    28    15    19   ar
    29    15    37    1
    30    16    19   ar
    31    16    21    1
    32    17    20   ar
    33    17    22    1
    34    18    20   ar
    35    18    38    1
    36    21    23    1
    37    21    39    1
    38    21    40    1
    39    22    24    1
    40    22    41    1
    41    22    42    1
    42    23    26    2
    43    23    43    1
    44    24    27    2
    45    24    44    1
    46    25    47    1
    47    25    48    1
    48    25    49    1
    49    26    28    1
    50    26    29    1
    51    27    30    1
    52    27    31    1
    53    28    50    1
    54    28    51    1
    55    28    52    1
    56    29    53    1
    57    29    54    1
    58    29    55    1
    59    30    56    1
    60    30    57    1
    61    30    58    1
    62    31    59    1
    63    31    60    1
    64    31    61    1
