@<TRIPOS>MOLECULE
IMPHY007552
 57 62 0 0 0
SMALL
GASTEIGER

@<TRIPOS>ATOM
      1 O           4.9895   -2.7186    0.0000 O.3     1  UNL1       -0.3651
      2 O           7.2930   -0.9056    0.0000 O.3     1  UNL1       -0.3558
      3 O           7.2342    1.2186    0.0000 O.3     1  UNL1       -0.4636
      4 O           3.7319    0.2217    0.0000 O.3     1  UNL1       -0.4611
      5 O           9.5571   -1.9591    0.0000 O.2     1  UNL1       -0.4965
      6 O           6.3682    2.7186    0.0000 O.2     1  UNL1       -0.2502
      7 O           2.8486   -1.2682    0.0000 O.2     1  UNL1       -0.2512
      8 C           6.3682   -0.2814    0.0000 C.3     1  UNL1        0.0439
      9 C           6.3842   -1.3229    0.0000 C.3     1  UNL1        0.1110
     10 C           5.4862   -1.8507    0.0000 C.3     1  UNL1        0.1255
     11 C           5.5021    0.2186    0.0000 C.3     1  UNL1        0.0232
     12 C           5.5021    1.2186    0.0000 C.3     1  UNL1        0.0718
     13 C           4.5921   -0.2882    0.0000 C.3     1  UNL1        0.1104
     14 C           4.5841   -1.3298    0.0000 C.3     1  UNL1        0.0188
     15 C           6.5712    0.0885    0.0000 C.3     1  UNL1       -0.0411
     16 C           6.5002   -2.3162    0.0000 C.3     1  UNL1       -0.0172
     17 C           5.9895   -2.7148    0.0000 C.3     1  UNL1        0.0805
     18 C           7.2342    0.2186    0.0000 C.3     1  UNL1        0.1012
     19 C           5.9240    1.2095    0.0000 C.3     1  UNL1       -0.0371
     20 C           6.6549    0.8841    0.0000 C.3     1  UNL1       -0.0513
     21 C           7.9707   -1.6410    0.0000 C.3     1  UNL1        0.1253
     22 C           7.4807   -2.5127    0.0000 C.3     1  UNL1       -0.0140
     23 C           6.3682    1.7186    0.0000 C.2     1  UNL1        0.3135
     24 C           5.0021    2.0846    0.0000 C.3     1  UNL1       -0.0490
     25 C           8.6484   -2.3764    0.0000 C.3     1  UNL1        0.1213
     26 C           8.4606   -0.7692    0.0000 C.2     1  UNL1       -0.0150
     27 C           9.4411   -0.9658    0.0000 C.2     1  UNL1        0.0835
     28 C           2.8602   -0.2682    0.0000 C.2     1  UNL1        0.3042
     29 C           2.0000    0.2418    0.0000 C.3     1  UNL1        0.0332
     30 H           4.9676    0.5327    0.0000 H       1  UNL1        0.0354
     31 H           4.0522   -0.5931    0.0000 H       1  UNL1        0.0738
     32 H           3.9741   -1.2190    0.0000 H       1  UNL1        0.0331
     33 H           4.3705   -1.9119    0.0000 H       1  UNL1        0.0331
     34 H           6.9599   -0.3945    0.0000 H       1  UNL1        0.0273
     35 H           5.9796    0.2738    0.0000 H       1  UNL1        0.0273
     36 H           5.8803   -2.3233    0.0000 H       1  UNL1        0.0295
     37 H           6.4426   -2.9335    0.0000 H       1  UNL1        0.0295
     38 H           6.0995   -3.3249    0.0000 H       1  UNL1        0.0590
     39 H           6.5713   -2.5004    0.0000 H       1  UNL1        0.0590
     40 H           7.4462   -0.3640    0.0000 H       1  UNL1        0.0704
     41 H           7.8448    0.3263    0.0000 H       1  UNL1        0.0704
     42 H           6.3731    1.6370    0.0000 H       1  UNL1        0.0276
     43 H           5.7886    0.6045    0.0000 H       1  UNL1        0.0276
     44 H           7.2613    0.7552    0.0000 H       1  UNL1        0.0266
     45 H           6.8465    1.4738    0.0000 H       1  UNL1        0.0266
     46 H           7.2960   -3.1046    0.0000 H       1  UNL1        0.0298
     47 H           8.0500   -2.7584    0.0000 H       1  UNL1        0.0298
     48 H           5.5391    2.3946    0.0000 H       1  UNL1        0.0240
     49 H           4.6921    2.6216    0.0000 H       1  UNL1        0.0240
     50 H           4.4652    1.7746    0.0000 H       1  UNL1        0.0240
     51 H           8.1510   -2.7466    0.0000 H       1  UNL1        0.0729
     52 H           8.9645   -2.9097    0.0000 H       1  UNL1        0.0729
     53 H           8.2019   -0.2058    0.0000 H       1  UNL1        0.0632
     54 H           9.8970   -0.5457    0.0000 H       1  UNL1        0.1021
     55 H           2.3162    0.7751    0.0000 H       1  UNL1        0.0342
     56 H           1.4667    0.5580    0.0000 H       1  UNL1        0.0342
     57 H           1.6838   -0.2915    0.0000 H       1  UNL1        0.0342
@<TRIPOS>BOND
     1     1    10    1
     2     1    17    1
     3     2     9    1
     4     2    21    1
     5     3    18    1
     6     3    23    1
     7     4    13    1
     8     4    28    1
     9     5    25    1
    10     5    27    1
    11     6    23    2
    12     7    28    2
    13     8     9    1
    14     8    11    1
    15     8    15    1
    16     8    18    1
    17     9    10    1
    18     9    16    1
    19    10    14    1
    20    10    17    1
    21    11    12    1
    22    11    13    1
    23    11    30    1
    24    12    19    1
    25    12    23    1
    26    12    24    1
    27    13    14    1
    28    13    31    1
    29    14    32    1
    30    14    33    1
    31    15    20    1
    32    15    34    1
    33    15    35    1
    34    16    22    1
    35    16    36    1
    36    16    37    1
    37    17    38    1
    38    17    39    1
    39    18    40    1
    40    18    41    1
    41    19    20    1
    42    19    42    1
    43    19    43    1
    44    20    44    1
    45    20    45    1
    46    21    22    1
    47    21    25    1
    48    21    26    1
    49    22    46    1
    50    22    47    1
    51    24    48    1
    52    24    49    1
    53    24    50    1
    54    25    51    1
    55    25    52    1
    56    26    27    2
    57    26    53    1
    58    27    54    1
    59    28    29    1
    60    29    55    1
    61    29    56    1
    62    29    57    1
