@<TRIPOS>MOLECULE
IMPHY004063
 25 25 0 0 0
SMALL
GASTEIGER

@<TRIPOS>ATOM
      1 O           2.0000    0.5670    0.0000 O.2     1  UNL1       -0.2965
      2 O           5.4641   -1.4330    0.0000 O.2     1  UNL1       -0.2974
      3 C           3.7320    0.5670    0.0000 C.3     1  UNL1        0.0303
      4 C           2.8660   -0.9330    0.0000 C.3     1  UNL1        0.0219
      5 C           4.5981    0.0670    0.0000 C.3     1  UNL1        0.0177
      6 C           2.8660    0.0670    0.0000 C.2     1  UNL1        0.1425
      7 C           3.7320   -1.4330    0.0000 C.3     1  UNL1        0.0151
      8 C           4.5981   -0.9330    0.0000 C.2     1  UNL1        0.1349
      9 C           4.2320    1.4330    0.0000 C.3     1  UNL1       -0.0527
     10 C           3.2320    1.4330    0.0000 C.3     1  UNL1       -0.0527
     11 C           2.0000   -1.4330    0.0000 C.3     1  UNL1       -0.0553
     12 H           2.8660   -1.7830    0.0000 H       1  UNL1        0.0379
     13 H           5.2087   -0.0407    0.0000 H       1  UNL1        0.0351
     14 H           4.8101    0.6496    0.0000 H       1  UNL1        0.0351
     15 H           3.3335   -1.9080    0.0000 H       1  UNL1        0.0348
     16 H           4.1306   -1.9080    0.0000 H       1  UNL1        0.0348
     17 H           4.7690    1.1230    0.0000 H       1  UNL1        0.0239
     18 H           4.5420    1.9700    0.0000 H       1  UNL1        0.0239
     19 H           3.7690    1.7430    0.0000 H       1  UNL1        0.0239
     20 H           2.9220    1.9700    0.0000 H       1  UNL1        0.0239
     21 H           2.6951    1.1230    0.0000 H       1  UNL1        0.0239
     22 H           3.6951    1.7430    0.0000 H       1  UNL1        0.0239
     23 H           1.6900   -0.8961    0.0000 H       1  UNL1        0.0237
     24 H           1.4631   -1.7430    0.0000 H       1  UNL1        0.0237
     25 H           2.3100   -1.9700    0.0000 H       1  UNL1        0.0237
@<TRIPOS>BOND
     1     1     6    2
     2     2     8    2
     3     3     5    1
     4     3     6    1
     5     3     9    1
     6     3    10    1
     7     4     6    1
     8     4     7    1
     9     4    11    1
    10     4    12    1
    11     5     8    1
    12     5    13    1
    13     5    14    1
    14     7     8    1
    15     7    15    1
    16     7    16    1
    17     9    17    1
    18     9    18    1
    19     9    22    1
    20    10    19    1
    21    10    20    1
    22    10    21    1
    23    11    23    1
    24    11    24    1
    25    11    25    1
