@<TRIPOS>MOLECULE
IMPHY008009
 53 55 0 0 0
SMALL
GASTEIGER

@<TRIPOS>ATOM
      1 CL          3.8260    0.0000    0.0000 Cl      1  UNL1        0.0000
      2 O           4.0484    7.4703    0.0000 O.3     2  UNL2       -0.4908
      3 O           5.8143    8.5081    0.0000 O.3     2  UNL2       -0.4914
      4 O           3.1878    6.9735    0.0000 O.3     2  UNL2       -0.5029
      5 O           1.4061    5.9630    0.0000 O.3     2  UNL2       -0.4914
      6 N           6.6604    3.9420    0.0000 N.4     2  UNL2        0.2449
      7 C           5.8022    4.4389    0.0000 C.3     2  UNL2        0.0113
      8 C           7.5259    4.4261    0.0000 C.3     2  UNL2       -0.0259
      9 C           5.8022    5.4389    0.0000 C.ar    2  UNL2        0.0154
     10 C           4.9362    3.9389    0.0000 C.3     2  UNL2        0.0207
     11 C           7.5515    5.4175    0.0000 C.3     2  UNL2        0.0134
     12 C           6.7122    5.9457    0.0000 C.ar    2  UNL2       -0.0296
     13 C           7.1540    3.0722    0.0000 C.3     2  UNL2       -0.0409
     14 C           6.1540    3.0796    0.0000 C.3     2  UNL2       -0.0409
     15 C           4.9362    5.9389    0.0000 C.ar    2  UNL2        0.0401
     16 C           4.0702    4.4389    0.0000 C.ar    2  UNL2       -0.0301
     17 C           4.0702    5.4389    0.0000 C.ar    2  UNL2        0.0347
     18 C           6.7203    6.9873    0.0000 C.ar    2  UNL2       -0.0124
     19 C           4.9201    6.9804    0.0000 C.ar    2  UNL2        0.1697
     20 C           5.8182    7.5081    0.0000 C.ar    2  UNL2        0.1624
     21 C           3.1762    3.9042    0.0000 C.ar    2  UNL2       -0.0541
     22 C           3.1762    5.9735    0.0000 C.ar    2  UNL2        0.1667
     23 C           2.2702    5.4597    0.0000 C.ar    2  UNL2        0.1619
     24 C           2.2702    4.4181    0.0000 C.ar    2  UNL2       -0.0160
     25 C           4.0368    8.4703    0.0000 C.3     2  UNL2        0.0790
     26 C           6.6784    9.0115    0.0000 C.3     2  UNL2        0.0790
     27 C           0.5381    5.4664    0.0000 C.3     2  UNL2        0.0790
     28 H           5.8018    3.8189    0.0000 H       2  UNL2        0.0908
     29 H           7.7277    3.8399    0.0000 H       2  UNL2        0.0818
     30 H           8.1387    4.5205    0.0000 H       2  UNL2        0.0818
     31 H           4.5377    3.4639    0.0000 H       2  UNL2        0.0372
     32 H           5.3347    3.4639    0.0000 H       2  UNL2        0.0372
     33 H           8.1586    5.2916    0.0000 H       2  UNL2        0.0365
     34 H           7.7833    5.9925    0.0000 H       2  UNL2        0.0365
     35 H           6.6148    2.7662    0.0000 H       2  UNL2        0.0778
     36 H           5.6194    3.3936    0.0000 H       2  UNL2        0.0778
     37 H           5.8401    2.5450    0.0000 H       2  UNL2        0.0778
     38 H           6.6887    2.7657    0.0000 H       2  UNL2        0.0778
     39 H           7.4600    2.5330    0.0000 H       2  UNL2        0.0778
     40 H           7.6932    3.3783    0.0000 H       2  UNL2        0.0778
     41 H           7.2584    7.2952    0.0000 H       2  UNL2        0.0658
     42 H           3.1834    3.2843    0.0000 H       2  UNL2        0.0622
     43 H           1.7344    4.1060    0.0000 H       2  UNL2        0.0655
     44 H           2.6545    7.2897    0.0000 H       2  UNL2        0.2923
     45 H           4.6568    8.4774    0.0000 H       2  UNL2        0.0660
     46 H           4.0297    9.0902    0.0000 H       2  UNL2        0.0660
     47 H           3.4169    8.4631    0.0000 H       2  UNL2        0.0660
     48 H           6.9905    8.4757    0.0000 H       2  UNL2        0.0660
     49 H           7.2142    9.3235    0.0000 H       2  UNL2        0.0660
     50 H           6.3664    9.5472    0.0000 H       2  UNL2        0.0660
     51 H           0.2302    6.0045    0.0000 H       2  UNL2        0.0660
     52 H           0.0000    5.1584    0.0000 H       2  UNL2        0.0660
     53 H           0.8461    4.9282    0.0000 H       2  UNL2        0.0660
@<TRIPOS>UNITY_ATOM_ATTR
1 1
charge -1
6 1
charge 1
@<TRIPOS>BOND
     1     2    19    1
     2     2    25    1
     3     3    20    1
     4     3    26    1
     5     4    22    1
     6     4    44    1
     7     5    23    1
     8     5    27    1
     9     6     7    1
    10     6     8    1
    11     6    13    1
    12     6    14    1
    13     7     9    1
    14     7    10    1
    15     7    28    1
    16     8    11    1
    17     8    29    1
    18     8    30    1
    19     9    12   ar
    20     9    15   ar
    21    10    16    1
    22    10    31    1
    23    10    32    1
    24    11    12    1
    25    11    33    1
    26    11    34    1
    27    12    18   ar
    28    13    35    1
    29    13    39    1
    30    13    40    1
    31    14    36    1
    32    14    37    1
    33    14    38    1
    34    15    17    1
    35    15    19   ar
    36    16    17   ar
    37    16    21   ar
    38    17    22   ar
    39    18    20   ar
    40    18    41    1
    41    19    20   ar
    42    21    24   ar
    43    21    42    1
    44    22    23   ar
    45    23    24   ar
    46    24    43    1
    47    25    45    1
    48    25    46    1
    49    25    47    1
    50    26    48    1
    51    26    49    1
    52    26    50    1
    53    27    51    1
    54    27    52    1
    55    27    53    1
