@<TRIPOS>MOLECULE
IMPHY004456
 31 31 0 0 0
SMALL
GASTEIGER

@<TRIPOS>ATOM
      1 O           6.3301   -2.3450    0.0000 O.3     1  UNL1       -0.4913
      2 O           2.8660   -2.3450    0.0000 O.3     1  UNL1       -0.4913
      3 O           4.5981   -3.3450    0.0000 O.3     1  UNL1       -0.5009
      4 O           6.3301    2.6550    0.0000 O.3     1  UNL1       -0.4649
      5 O           4.5981    2.6550    0.0000 O.2     1  UNL1       -0.2456
      6 C           4.5981   -0.3450    0.0000 C.ar    1  UNL1       -0.0177
      7 C           5.4641   -1.8450    0.0000 C.ar    1  UNL1        0.1655
      8 C           3.7320   -1.8450    0.0000 C.ar    1  UNL1        0.1655
      9 C           3.7320   -0.8450    0.0000 C.ar    1  UNL1       -0.0089
     10 C           5.4641   -0.8450    0.0000 C.ar    1  UNL1       -0.0089
     11 C           4.5981   -2.3450    0.0000 C.ar    1  UNL1        0.2010
     12 C           4.5981    0.6550    0.0000 C.2     1  UNL1       -0.0476
     13 C           5.4641    1.1550    0.0000 C.2     1  UNL1        0.0230
     14 C           7.1962   -1.8450    0.0000 C.3     1  UNL1        0.0790
     15 C           2.0000   -1.8450    0.0000 C.3     1  UNL1        0.0790
     16 C           5.4641    2.1550    0.0000 C.2     1  UNL1        0.3317
     17 C           6.3301    3.6550    0.0000 C.3     1  UNL1        0.0820
     18 H           3.1951   -0.5350    0.0000 H       1  UNL1        0.0661
     19 H           6.0010   -0.5350    0.0000 H       1  UNL1        0.0661
     20 H           4.0611    0.9650    0.0000 H       1  UNL1        0.0626
     21 H           6.0010    0.8450    0.0000 H       1  UNL1        0.0689
     22 H           4.0611   -3.6550    0.0000 H       1  UNL1        0.2924
     23 H           7.5062   -2.3819    0.0000 H       1  UNL1        0.0660
     24 H           7.7331   -1.5350    0.0000 H       1  UNL1        0.0660
     25 H           6.8862   -1.3081    0.0000 H       1  UNL1        0.0660
     26 H           2.3100   -1.3081    0.0000 H       1  UNL1        0.0660
     27 H           1.4631   -1.5350    0.0000 H       1  UNL1        0.0660
     28 H           1.6900   -2.3819    0.0000 H       1  UNL1        0.0660
     29 H           6.9501    3.6550    0.0000 H       1  UNL1        0.0661
     30 H           6.3301    4.2750    0.0000 H       1  UNL1        0.0661
     31 H           5.7101    3.6550    0.0000 H       1  UNL1        0.0661
@<TRIPOS>BOND
     1     1     7    1
     2     1    14    1
     3     2     8    1
     4     2    15    1
     5     3    11    1
     6     3    22    1
     7     4    16    1
     8     4    17    1
     9     5    16    2
    10     6     9   ar
    11     6    10   ar
    12     6    12    1
    13     7    10   ar
    14     7    11   ar
    15     8     9   ar
    16     8    11   ar
    17     9    18    1
    18    10    19    1
    19    12    13    2
    20    12    20    1
    21    13    16    1
    22    13    21    1
    23    14    23    1
    24    14    24    1
    25    14    25    1
    26    15    26    1
    27    15    27    1
    28    15    28    1
    29    17    29    1
    30    17    30    1
    31    17    31    1
