@<TRIPOS>MOLECULE
IMPHY005453
 33 35 0 0 0
SMALL
GASTEIGER

@<TRIPOS>ATOM
      1 O           6.3981   -1.6581    0.0000 O.2     1  UNL1       -0.4542
      2 O           9.9282    0.3661    0.0000 O.3     1  UNL1       -0.4914
      3 O           8.1465    1.3765    0.0000 O.3     1  UNL1       -0.5027
      4 O           6.3981    1.3419    0.0000 O.2     1  UNL1       -0.2861
      5 O           2.8680   -1.6822    0.0000 O.3     1  UNL1       -0.4949
      6 O           4.6497    1.3765    0.0000 O.3     1  UNL1       -0.5058
      7 C           7.2641   -0.1581    0.0000 C.ar    1  UNL1        0.1096
      8 C           5.5320   -0.1581    0.0000 C.ar    1  UNL1        0.1062
      9 C           5.5320   -1.1581    0.0000 C.ar    1  UNL1        0.1463
     10 C           7.2641   -1.1581    0.0000 C.ar    1  UNL1        0.1430
     11 C           6.3981    0.3419    0.0000 C.ar    1  UNL1        0.2074
     12 C           8.1580    0.3766    0.0000 C.ar    1  UNL1        0.1731
     13 C           4.6381    0.3766    0.0000 C.ar    1  UNL1        0.1347
     14 C           4.6381   -1.6927    0.0000 C.ar    1  UNL1        0.0233
     15 C           8.1580   -1.6927    0.0000 C.ar    1  UNL1       -0.0149
     16 C           9.0641   -0.1372    0.0000 C.ar    1  UNL1        0.1622
     17 C           3.7320   -1.1789    0.0000 C.ar    1  UNL1        0.1271
     18 C           3.7320   -0.1372    0.0000 C.ar    1  UNL1        0.0225
     19 C           9.0641   -1.1789    0.0000 C.ar    1  UNL1       -0.0128
     20 C          10.7961   -0.1306    0.0000 C.3     1  UNL1        0.0790
     21 C           2.0000   -1.1856    0.0000 C.3     1  UNL1        0.0788
     22 H           4.6453   -2.3127    0.0000 H       1  UNL1        0.0691
     23 H           8.1509   -2.3127    0.0000 H       1  UNL1        0.0656
     24 H           3.1963    0.1748    0.0000 H       1  UNL1        0.0691
     25 H           9.5998   -1.4909    0.0000 H       1  UNL1        0.0656
     26 H           8.6798    1.6927    0.0000 H       1  UNL1        0.2923
     27 H           4.1164    1.6927    0.0000 H       1  UNL1        0.2922
     28 H          10.4882   -0.6687    0.0000 H       1  UNL1        0.0660
     29 H          11.3343   -0.4385    0.0000 H       1  UNL1        0.0660
     30 H          11.1041    0.4076    0.0000 H       1  UNL1        0.0660
     31 H           2.3079   -0.6474    0.0000 H       1  UNL1        0.0660
     32 H           1.4619   -0.8776    0.0000 H       1  UNL1        0.0660
     33 H           1.6921   -1.7237    0.0000 H       1  UNL1        0.0660
@<TRIPOS>BOND
     1     1     9   ar
     2     1    10   ar
     3     2    16    1
     4     2    20    1
     5     3    12    1
     6     3    26    1
     7     4    11    2
     8     5    17    1
     9     5    21    1
    10     6    13    1
    11     6    27    1
    12     7    10   ar
    13     7    11   ar
    14     7    12   ar
    15     8     9   ar
    16     8    11   ar
    17     8    13   ar
    18     9    14   ar
    19    10    15   ar
    20    12    16   ar
    21    13    18   ar
    22    14    17   ar
    23    14    22    1
    24    15    19   ar
    25    15    23    1
    26    16    19   ar
    27    17    18   ar
    28    18    24    1
    29    19    25    1
    30    20    28    1
    31    20    29    1
    32    20    30    1
    33    21    31    1
    34    21    32    1
    35    21    33    1
