@<TRIPOS>MOLECULE
IMPHY001224
 25 26 0 0 0
SMALL
GASTEIGER

@<TRIPOS>ATOM
      1 O           6.9343    1.5600    0.0000 O.3     1  UNL1       -0.4644
      2 O           2.5381    0.0841    0.0000 O.3     1  UNL1       -0.5067
      3 O           7.8003   -1.9400    0.0000 O.2     1  UNL1       -0.2679
      4 O           5.2022    1.5600    0.0000 O.2     1  UNL1       -0.2449
      5 N           6.0682   -1.9400    0.0000 N.ar    1  UNL1       -0.3221
      6 C           5.2022   -0.4400    0.0000 C.ar    1  UNL1        0.0159
      7 C           5.2022   -1.4400    0.0000 C.ar    1  UNL1        0.0502
      8 C           6.0682    0.0600    0.0000 C.ar    1  UNL1        0.0733
      9 C           4.3083    0.0947    0.0000 C.ar    1  UNL1       -0.0103
     10 C           4.3083   -1.9747    0.0000 C.ar    1  UNL1       -0.0342
     11 C           6.9343   -0.4400    0.0000 C.ar    1  UNL1        0.0173
     12 C           6.9343   -1.4400    0.0000 C.ar    1  UNL1        0.2500
     13 C           3.4022   -0.4192    0.0000 C.ar    1  UNL1        0.1176
     14 C           3.4022   -1.4608    0.0000 C.ar    1  UNL1       -0.0182
     15 C           6.0682    1.0600    0.0000 C.2     1  UNL1        0.3397
     16 C           6.9343    2.5600    0.0000 C.3     1  UNL1        0.0820
     17 H           4.3154    0.7146    0.0000 H       1  UNL1        0.0661
     18 H           6.0682   -2.5600    0.0000 H       1  UNL1        0.1689
     19 H           4.3154   -2.5946    0.0000 H       1  UNL1        0.0639
     20 H           7.4712   -0.1300    0.0000 H       1  UNL1        0.0680
     21 H           2.8665   -1.7729    0.0000 H       1  UNL1        0.0655
     22 H           2.0000   -0.2238    0.0000 H       1  UNL1        0.2921
     23 H           7.5543    2.5600    0.0000 H       1  UNL1        0.0661
     24 H           6.9343    3.1800    0.0000 H       1  UNL1        0.0661
     25 H           6.3143    2.5600    0.0000 H       1  UNL1        0.0661
@<TRIPOS>BOND
     1     1    15    1
     2     1    16    1
     3     2    13    1
     4     2    22    1
     5     3    12    2
     6     4    15    2
     7     5     7   ar
     8     5    12   ar
     9     5    18    1
    10     6     7   ar
    11     6     8   ar
    12     6     9   ar
    13     7    10   ar
    14     8    11   ar
    15     8    15    1
    16     9    13   ar
    17     9    17    1
    18    10    14   ar
    19    10    19    1
    20    11    12   ar
    21    11    20    1
    22    13    14   ar
    23    14    21    1
    24    16    23    1
    25    16    24    1
    26    16    25    1
