@<TRIPOS>MOLECULE
IMPHY005496
 40 40 0 0 0
SMALL
GASTEIGER

@<TRIPOS>ATOM
      1 O           2.8660    1.5600    0.0000 O.3     1  UNL1       -0.4646
      2 O           3.8660    0.5600    0.0000 O.2     1  UNL1       -0.2509
      3 C           6.4300    0.3188    0.0000 C.3     1  UNL1       -0.0530
      4 C           6.4300    1.3188    0.0000 C.3     1  UNL1       -0.0530
      5 C           7.1371   -0.3883    0.0000 C.3     1  UNL1       -0.0528
      6 C           5.5640    1.8188    0.0000 C.3     1  UNL1       -0.0500
      7 C           6.4300   -1.0954    0.0000 C.3     1  UNL1       -0.0496
      8 C           4.5981    1.5600    0.0000 C.3     1  UNL1       -0.0185
      9 C           5.4641   -0.9400    0.0000 C.3     1  UNL1       -0.0348
     10 C           3.7320    2.0600    0.0000 C.3     1  UNL1        0.0925
     11 C           4.5981   -1.4400    0.0000 C.2     1  UNL1       -0.0879
     12 C           2.0000   -0.9400    0.0000 C.3     1  UNL1       -0.0395
     13 C           2.8660   -1.4400    0.0000 C.3     1  UNL1       -0.0343
     14 C           2.0000    0.0600    0.0000 C.3     1  UNL1        0.0452
     15 C           3.7320   -0.9400    0.0000 C.2     1  UNL1       -0.0879
     16 C           2.8660    0.5600    0.0000 C.2     1  UNL1        0.3071
     17 H           5.8312    0.4793    0.0000 H       1  UNL1        0.0265
     18 H           6.1200   -0.2181    0.0000 H       1  UNL1        0.0265
     19 H           7.0406    1.2112    0.0000 H       1  UNL1        0.0265
     20 H           6.6421    1.9014    0.0000 H       1  UNL1        0.0265
     21 H           7.5755   -0.8267    0.0000 H       1  UNL1        0.0265
     22 H           7.5755    0.0501    0.0000 H       1  UNL1        0.0265
     23 H           6.0024    2.2572    0.0000 H       1  UNL1        0.0266
     24 H           5.2540    2.3558    0.0000 H       1  UNL1        0.0266
     25 H           6.2069   -1.6738    0.0000 H       1  UNL1        0.0268
     26 H           6.9497   -1.4335    0.0000 H       1  UNL1        0.0268
     27 H           4.1597    1.1216    0.0000 H       1  UNL1        0.0298
     28 H           4.9081    1.0231    0.0000 H       1  UNL1        0.0298
     29 H           5.7368   -0.3832    0.0000 H       1  UNL1        0.0307
     30 H           5.0110   -0.5168    0.0000 H       1  UNL1        0.0307
     31 H           4.1306    2.5349    0.0000 H       1  UNL1        0.0697
     32 H           3.3335    2.5349    0.0000 H       1  UNL1        0.0697
     33 H           4.5981   -2.0600    0.0000 H       1  UNL1        0.0569
     34 H           1.3894   -0.8323    0.0000 H       1  UNL1        0.0273
     35 H           1.7880   -1.5226    0.0000 H       1  UNL1        0.0273
     36 H           2.4675   -1.9150    0.0000 H       1  UNL1        0.0307
     37 H           3.2646   -1.9150    0.0000 H       1  UNL1        0.0307
     38 H           1.7880    0.6426    0.0000 H       1  UNL1        0.0378
     39 H           1.3894   -0.0477    0.0000 H       1  UNL1        0.0378
     40 H           4.0420   -0.4031    0.0000 H       1  UNL1        0.0569
@<TRIPOS>BOND
     1     1    10    1
     2     1    16    1
     3     2    16    2
     4     3     4    1
     5     3     5    1
     6     3    17    1
     7     3    18    1
     8     4     6    1
     9     4    19    1
    10     4    20    1
    11     5     7    1
    12     5    21    1
    13     5    22    1
    14     6     8    1
    15     6    23    1
    16     6    24    1
    17     7     9    1
    18     7    25    1
    19     7    26    1
    20     8    10    1
    21     8    27    1
    22     8    28    1
    23     9    11    1
    24     9    29    1
    25     9    30    1
    26    10    31    1
    27    10    32    1
    28    11    15    2
    29    11    33    1
    30    12    13    1
    31    12    14    1
    32    12    34    1
    33    12    35    1
    34    13    15    1
    35    13    36    1
    36    13    37    1
    37    14    16    1
    38    14    38    1
    39    14    39    1
    40    15    40    1
