@<TRIPOS>MOLECULE
IMPHY006398
 56 58 0 0 0
SMALL
GASTEIGER

@<TRIPOS>ATOM
      1 O           6.0682   -0.1481    0.0000 O.2     1  UNL1       -0.4539
      2 O           7.8167    2.8864    0.0000 O.3     1  UNL1       -0.5055
      3 O           2.5381    1.8760    0.0000 O.3     1  UNL1       -0.4914
      4 O           2.5381   -0.1723    0.0000 O.3     1  UNL1       -0.5030
      5 O           6.0682    2.8519    0.0000 O.2     1  UNL1       -0.2863
      6 O           9.5984   -0.1723    0.0000 O.3     1  UNL1       -0.5062
      7 C           5.2022    0.3519    0.0000 C.ar    1  UNL1        0.1464
      8 C           5.2022    1.3518    0.0000 C.ar    1  UNL1        0.0687
      9 C           6.9343    1.3518    0.0000 C.ar    1  UNL1        0.1063
     10 C           4.3083   -0.1828    0.0000 C.ar    1  UNL1        0.0443
     11 C           6.9343    0.3519    0.0000 C.ar    1  UNL1        0.1463
     12 C           6.0682    1.8518    0.0000 C.ar    1  UNL1        0.2038
     13 C           8.7343    1.3727    0.0000 C.ar    1  UNL1        0.0400
     14 C           7.8282    1.8865    0.0000 C.ar    1  UNL1        0.1381
     15 C           4.3198   -1.1827    0.0000 C.3     1  UNL1       -0.0021
     16 C           3.4022    0.3310    0.0000 C.ar    1  UNL1        0.1656
     17 C           4.3083    1.8865    0.0000 C.ar    1  UNL1       -0.0019
     18 C           7.8282   -0.1828    0.0000 C.ar    1  UNL1        0.0234
     19 C           8.7343    0.3310    0.0000 C.ar    1  UNL1        0.1273
     20 C           3.4022    1.3727    0.0000 C.ar    1  UNL1        0.1625
     21 C           9.5984    1.8760    0.0000 C.3     1  UNL1       -0.0023
     22 C           3.4597   -1.6927    0.0000 C.2     1  UNL1       -0.0807
     23 C          10.4663    1.3793    0.0000 C.2     1  UNL1       -0.0807
     24 C           3.4712   -2.6927    0.0000 C.2     1  UNL1       -0.0793
     25 C          11.3304    1.8827    0.0000 C.2     1  UNL1       -0.0793
     26 C           2.6110   -3.2026    0.0000 C.3     1  UNL1       -0.0440
     27 C           4.3430   -3.1826    0.0000 C.3     1  UNL1       -0.0440
     28 C          12.1984    1.3860    0.0000 C.3     1  UNL1       -0.0440
     29 C          11.3266    2.8827    0.0000 C.3     1  UNL1       -0.0440
     30 C           2.5420    2.8760    0.0000 C.3     1  UNL1        0.0790
     31 H           4.5386   -1.7629    0.0000 H       1  UNL1        0.0358
     32 H           4.9291   -1.0680    0.0000 H       1  UNL1        0.0358
     33 H           4.3154    2.5065    0.0000 H       1  UNL1        0.0663
     34 H           7.8210   -0.8028    0.0000 H       1  UNL1        0.0691
     35 H           9.9951    2.3525    0.0000 H       1  UNL1        0.0358
     36 H           9.1980    2.3494    0.0000 H       1  UNL1        0.0358
     37 H           2.9192   -1.3889    0.0000 H       1  UNL1        0.0575
     38 H          10.4687    0.7593    0.0000 H       1  UNL1        0.0575
     39 H           8.3500    3.2026    0.0000 H       1  UNL1        0.2922
     40 H           2.0000    0.1356    0.0000 H       1  UNL1        0.2923
     41 H           9.5960   -0.7923    0.0000 H       1  UNL1        0.2921
     42 H           2.2948   -2.6693    0.0000 H       1  UNL1        0.0274
     43 H           2.0777   -3.5188    0.0000 H       1  UNL1        0.0274
     44 H           2.9272   -3.7360    0.0000 H       1  UNL1        0.0274
     45 H           4.0392   -3.7231    0.0000 H       1  UNL1        0.0274
     46 H           4.8835   -3.4864    0.0000 H       1  UNL1        0.0274
     47 H           4.6468   -2.6421    0.0000 H       1  UNL1        0.0274
     48 H          11.8904    0.8479    0.0000 H       1  UNL1        0.0274
     49 H          12.7365    1.0781    0.0000 H       1  UNL1        0.0274
     50 H          12.5063    1.9242    0.0000 H       1  UNL1        0.0274
     51 H          11.9466    2.8851    0.0000 H       1  UNL1        0.0274
     52 H          11.3242    3.5027    0.0000 H       1  UNL1        0.0274
     53 H          10.7066    2.8803    0.0000 H       1  UNL1        0.0274
     54 H           3.1620    2.8736    0.0000 H       1  UNL1        0.0660
     55 H           2.5444    3.4960    0.0000 H       1  UNL1        0.0660
     56 H           1.9220    2.8784    0.0000 H       1  UNL1        0.0660
@<TRIPOS>BOND
     1     1     7   ar
     2     1    11   ar
     3     2    14    1
     4     2    39    1
     5     3    20    1
     6     3    30    1
     7     4    16    1
     8     4    40    1
     9     5    12    2
    10     6    19    1
    11     6    41    1
    12     7     8   ar
    13     7    10   ar
    14     8    12   ar
    15     8    17   ar
    16     9    11   ar
    17     9    12   ar
    18     9    14   ar
    19    10    15    1
    20    10    16   ar
    21    11    18   ar
    22    13    14   ar
    23    13    19   ar
    24    13    21    1
    25    15    22    1
    26    15    31    1
    27    15    32    1
    28    16    20   ar
    29    17    20   ar
    30    17    33    1
    31    18    19   ar
    32    18    34    1
    33    21    23    1
    34    21    35    1
    35    21    36    1
    36    22    24    2
    37    22    37    1
    38    23    25    2
    39    23    38    1
    40    24    26    1
    41    24    27    1
    42    25    28    1
    43    25    29    1
    44    26    42    1
    45    26    43    1
    46    26    44    1
    47    27    45    1
    48    27    46    1
    49    27    47    1
    50    28    48    1
    51    28    49    1
    52    28    50    1
    53    29    51    1
    54    29    52    1
    55    29    53    1
    56    30    54    1
    57    30    55    1
    58    30    56    1
