@<TRIPOS>MOLECULE
IMPHY008119
 49 51 0 0 0
SMALL
GASTEIGER

@<TRIPOS>ATOM
      1 O           6.3299    1.2209    0.0000 O.3     1  UNL1       -0.3648
      2 O           3.7320    0.7204    0.0000 O.3     1  UNL1       -0.4573
      3 O           5.2549   -2.2514    0.0000 O.3     1  UNL1       -0.4532
      4 O           8.9282   -1.2796    0.0000 O.3     1  UNL1       -0.3874
      5 O           3.7662   -3.2204    0.0000 O.2     1  UNL1       -0.2453
      6 O           4.5981    2.2204    0.0000 O.2     1  UNL1       -0.2453
      7 C           6.3301    0.2204    0.0000 C.3     1  UNL1        0.0967
      8 C           7.1962    0.7204    0.0000 C.3     1  UNL1        0.0909
      9 C           5.4641    0.7204    0.0000 C.3     1  UNL1        0.0164
     10 C           8.0622    0.2204    0.0000 C.3     1  UNL1        0.0061
     11 C           4.5981    0.2204    0.0000 C.3     1  UNL1        0.1167
     12 C           5.4641   -0.2796    0.0000 C.3     1  UNL1       -0.0332
     13 C           4.5981   -0.7796    0.0000 C.3     1  UNL1        0.0681
     14 C           8.0622   -0.7796    0.0000 C.3     1  UNL1        0.0786
     15 C           5.4641   -1.2796    0.0000 C.3     1  UNL1        0.1322
     16 C           7.1962   -1.2796    0.0000 C.2     1  UNL1       -0.0449
     17 C           3.8611   -1.4466    0.0000 C.2     1  UNL1        0.0400
     18 C           6.3301   -0.7796    0.0000 C.2     1  UNL1       -0.0419
     19 C           4.2662   -2.3544    0.0000 C.2     1  UNL1        0.3357
     20 C           7.1962   -2.2796    0.0000 C.3     1  UNL1       -0.0413
     21 C           2.8826   -1.2404    0.0000 C.2     1  UNL1       -0.0882
     22 C           3.7320    1.7204    0.0000 C.2     1  UNL1        0.3346
     23 C           2.8660    2.2204    0.0000 C.2     1  UNL1        0.0265
     24 C           2.8660    3.2204    0.0000 C.3     1  UNL1       -0.0335
     25 C           2.0000    1.7204    0.0000 C.2     1  UNL1       -0.0890
     26 H           7.6212    1.4565    0.0000 H       1  UNL1        0.0626
     27 H           5.8626    1.1954    0.0000 H       1  UNL1        0.0330
     28 H           5.0656    1.1954    0.0000 H       1  UNL1        0.0330
     29 H           8.6728    0.1128    0.0000 H       1  UNL1        0.0319
     30 H           8.2742    0.8031    0.0000 H       1  UNL1        0.0319
     31 H           4.5981    0.8404    0.0000 H       1  UNL1        0.0742
     32 H           5.1541    0.2574    0.0000 H       1  UNL1        0.0258
     33 H           4.9272   -0.5896    0.0000 H       1  UNL1        0.0258
     34 H           5.7741   -0.8165    0.0000 H       1  UNL1        0.0258
     35 H           3.8211   -0.4348    0.0000 H       1  UNL1        0.0427
     36 H           8.0622   -1.3996    0.0000 H       1  UNL1        0.0641
     37 H           6.1511   -1.7801    0.0000 H       1  UNL1        0.0787
     38 H           6.7287   -0.3046    0.0000 H       1  UNL1        0.0609
     39 H           6.5762   -2.2796    0.0000 H       1  UNL1        0.0275
     40 H           7.1962   -2.8996    0.0000 H       1  UNL1        0.0275
     41 H           7.8162   -2.2796    0.0000 H       1  UNL1        0.0275
     42 H           9.4651   -0.9696    0.0000 H       1  UNL1        0.2102
     43 H           2.6899   -0.6511    0.0000 H       1  UNL1        0.0540
     44 H           2.4685   -1.7019    0.0000 H       1  UNL1        0.0540
     45 H           3.4860    3.2204    0.0000 H       1  UNL1        0.0280
     46 H           2.8660    3.8404    0.0000 H       1  UNL1        0.0280
     47 H           2.2460    3.2204    0.0000 H       1  UNL1        0.0280
     48 H           1.4631    2.0304    0.0000 H       1  UNL1        0.0540
     49 H           2.0000    1.1004    0.0000 H       1  UNL1        0.0540
@<TRIPOS>BOND
     1     1     7    1
     2     1     8    1
     3    11     2    1
     4     2    22    1
     5     3    15    1
     6     3    19    1
     7    14     4    1
     8     4    42    1
     9     5    19    2
    10     6    22    2
    11     7     8    1
    12     7     9    1
    13     7    12    1
    14     8    10    1
    15     8    26    1
    16     9    11    1
    17     9    27    1
    18     9    28    1
    19    10    14    1
    20    10    29    1
    21    10    30    1
    22    11    13    1
    23    11    31    1
    24    12    32    1
    25    12    33    1
    26    12    34    1
    27    13    15    1
    28    13    17    1
    29    13    35    1
    30    14    16    1
    31    14    36    1
    32    15    18    1
    33    15    37    1
    34    16    18    2
    35    16    20    1
    36    17    19    1
    37    17    21    2
    38    18    38    1
    39    20    39    1
    40    20    40    1
    41    20    41    1
    42    21    43    1
    43    21    44    1
    44    22    23    1
    45    23    24    1
    46    23    25    2
    47    24    45    1
    48    24    46    1
    49    24    47    1
    50    25    48    1
    51    25    49    1
