@<TRIPOS>MOLECULE
IMPHY007833
 36 38 0 0 0
SMALL
GASTEIGER

@<TRIPOS>ATOM
      1 O           3.7230   -0.4117    0.0000 O.3     1  UNL1       -0.4565
      2 O           4.8930   -2.0150    0.0000 O.2     1  UNL1       -0.2920
      3 O           2.0000    0.0205    0.0000 O.2     1  UNL1       -0.2453
      4 C           5.4786   -0.3379    0.0000 C.3     1  UNL1        0.0740
      5 C           6.3796    0.0960    0.0000 C.3     1  UNL1       -0.0041
      6 C           4.5777    0.0960    0.0000 C.3     1  UNL1        0.1232
      7 C           4.3551    1.0709    0.0000 C.3     1  UNL1        0.0284
      8 C           6.6021    1.0709    0.0000 C.3     1  UNL1       -0.0366
      9 C           4.9786    1.8527    0.0000 C.3     1  UNL1       -0.0423
     10 C           5.9786    1.8527    0.0000 C.3     1  UNL1       -0.0492
     11 C           5.6146   -1.3227    0.0000 C.2     1  UNL1        0.1657
     12 C           4.5777   -0.7718    0.0000 C.3     1  UNL1       -0.0485
     13 C           7.0647   -0.6243    0.0000 C.2     1  UNL1       -0.0763
     14 C           3.3648    1.1574    0.0000 C.2     1  UNL1        0.0361
     15 C           6.5929   -1.4993    0.0000 C.2     1  UNL1       -0.0221
     16 C           7.5770    1.2934    0.0000 C.3     1  UNL1       -0.0619
     17 C           2.9749    0.2430    0.0000 C.2     1  UNL1        0.3353
     18 C           2.8504    2.0150    0.0000 C.2     1  UNL1       -0.0883
     19 H           7.1993    0.3210    0.0000 H       1  UNL1        0.0356
     20 H           5.2422    0.6259    0.0000 H       1  UNL1        0.0750
     21 H           4.0200    1.8520    0.0000 H       1  UNL1        0.0387
     22 H           6.8069    1.6561    0.0000 H       1  UNL1        0.0304
     23 H           5.1166    2.4572    0.0000 H       1  UNL1        0.0272
     24 H           4.4200    2.1217    0.0000 H       1  UNL1        0.0272
     25 H           6.5372    2.1217    0.0000 H       1  UNL1        0.0268
     26 H           5.8407    2.4572    0.0000 H       1  UNL1        0.0268
     27 H           4.3086   -0.2132    0.0000 H       1  UNL1        0.0241
     28 H           4.0191   -1.0408    0.0000 H       1  UNL1        0.0241
     29 H           4.8467   -1.3304    0.0000 H       1  UNL1        0.0241
     30 H           7.6792   -0.5422    0.0000 H       1  UNL1        0.0576
     31 H           6.8619   -2.0579    0.0000 H       1  UNL1        0.0649
     32 H           7.7150    0.6889    0.0000 H       1  UNL1        0.0233
     33 H           8.1815    1.4314    0.0000 H       1  UNL1        0.0233
     34 H           7.4391    1.8979    0.0000 H       1  UNL1        0.0233
     35 H           3.1514    2.5570    0.0000 H       1  UNL1        0.0540
     36 H           2.2305    2.0046    0.0000 H       1  UNL1        0.0540
@<TRIPOS>BOND
     1     1     6    1
     2     1    17    1
     3     2    11    2
     4     3    17    2
     5     4     5    1
     6     4     6    1
     7     4    11    1
     8     4    12    1
     9     5     8    1
    10     5    13    1
    11     5    19    1
    12     6     7    1
    13     6    20    1
    14     7     9    1
    15     7    14    1
    16     7    21    1
    17     8    10    1
    18     8    16    1
    19     8    22    1
    20     9    10    1
    21     9    23    1
    22     9    24    1
    23    10    25    1
    24    10    26    1
    25    11    15    1
    26    12    27    1
    27    12    28    1
    28    12    29    1
    29    13    15    2
    30    13    30    1
    31    14    17    1
    32    14    18    2
    33    15    31    1
    34    16    32    1
    35    16    33    1
    36    16    34    1
    37    18    35    1
    38    18    36    1
