@<TRIPOS>MOLECULE
IMPHY014888
 38 39 0 0 0
SMALL
GASTEIGER

@<TRIPOS>ATOM
      1 O           5.2111    2.3268    0.0000 O.3     1  UNL1       -0.3912
      2 C           3.9511    1.0667    0.0000 C.3     1  UNL1        0.0004
      3 C           2.9511    1.0667    0.0000 C.3     1  UNL1        0.0005
      4 C           4.2601    2.0178    0.0000 C.3     1  UNL1        0.0612
      5 C           2.6420    2.0178    0.0000 C.3     1  UNL1       -0.0407
      6 C           3.4511    2.6056    0.0000 C.3     1  UNL1       -0.0255
      7 C           4.9021    0.7577    0.0000 C.3     1  UNL1       -0.0567
      8 C           4.4511    0.2008    0.0000 C.3     1  UNL1       -0.0567
      9 C           2.0000    0.7577    0.0000 C.3     1  UNL1       -0.0550
     10 C           2.9511    0.0667    0.0000 C.ar    1  UNL1       -0.0408
     11 C           3.8171   -0.4333    0.0000 C.ar    1  UNL1       -0.0578
     12 C           2.0850   -0.4333    0.0000 C.ar    1  UNL1       -0.0578
     13 C           3.8171   -1.4333    0.0000 C.ar    1  UNL1       -0.0586
     14 C           2.0850   -1.4333    0.0000 C.ar    1  UNL1       -0.0586
     15 C           2.9511   -1.9333    0.0000 C.ar    1  UNL1       -0.0504
     16 C           2.9511   -2.9333    0.0000 C.3     1  UNL1       -0.0397
     17 H           4.6985    1.5794    0.0000 H       1  UNL1        0.0599
     18 H           2.3320    2.5547    0.0000 H       1  UNL1        0.0275
     19 H           2.0756    1.7656    0.0000 H       1  UNL1        0.0275
     20 H           3.8659    3.0663    0.0000 H       1  UNL1        0.0290
     21 H           3.0362    3.0663    0.0000 H       1  UNL1        0.0290
     22 H           4.7105    0.1681    0.0000 H       1  UNL1        0.0236
     23 H           5.4918    0.5661    0.0000 H       1  UNL1        0.0236
     24 H           5.0937    1.3474    0.0000 H       1  UNL1        0.0236
     25 H           3.9142   -0.1093    0.0000 H       1  UNL1        0.0236
     26 H           4.7612   -0.3361    0.0000 H       1  UNL1        0.0236
     27 H           4.9880    0.5108    0.0000 H       1  UNL1        0.0236
     28 H           1.8084    1.3474    0.0000 H       1  UNL1        0.0238
     29 H           1.4103    0.5661    0.0000 H       1  UNL1        0.0238
     30 H           2.1916    0.1681    0.0000 H       1  UNL1        0.0238
     31 H           5.3400    2.9333    0.0000 H       1  UNL1        0.2098
     32 H           4.3540   -0.1233    0.0000 H       1  UNL1        0.0621
     33 H           1.5481   -0.1233    0.0000 H       1  UNL1        0.0621
     34 H           4.3540   -1.7433    0.0000 H       1  UNL1        0.0620
     35 H           1.5481   -1.7433    0.0000 H       1  UNL1        0.0620
     36 H           2.3311   -2.9333    0.0000 H       1  UNL1        0.0278
     37 H           2.9511   -3.5533    0.0000 H       1  UNL1        0.0278
     38 H           3.5711   -2.9333    0.0000 H       1  UNL1        0.0278
@<TRIPOS>BOND
     1     4     1    1
     2     1    31    1
     3     2     3    1
     4     2     4    1
     5     2     7    1
     6     2     8    1
     7     3     5    1
     8     3     9    1
     9     3    10    1
    10     4     6    1
    11     4    17    1
    12     5     6    1
    13     5    18    1
    14     5    19    1
    15     6    20    1
    16     6    21    1
    17     7    22    1
    18     7    23    1
    19     7    24    1
    20     8    25    1
    21     8    26    1
    22     8    27    1
    23     9    28    1
    24     9    29    1
    25     9    30    1
    26    10    11   ar
    27    10    12   ar
    28    11    13   ar
    29    11    32    1
    30    12    14   ar
    31    12    33    1
    32    13    15   ar
    33    13    34    1
    34    14    15   ar
    35    14    35    1
    36    15    16    1
    37    16    36    1
    38    16    37    1
    39    16    38    1
