@<TRIPOS>MOLECULE
IMPHY012062
 30 30 0 0 0
SMALL
GASTEIGER

@<TRIPOS>ATOM
      1 O           3.7320   -1.0000    0.0000 O.3     1  UNL1       -0.4614
      2 O           7.1962    1.0000    0.0000 O.3     1  UNL1       -0.4614
      3 O           4.5981    0.5000    0.0000 O.2     1  UNL1       -0.2449
      4 O           5.4641    1.0000    0.0000 O.2     1  UNL1       -0.2449
      5 C           5.4641   -1.0000    0.0000 C.ar    1  UNL1        0.0729
      6 C           6.3301   -0.5000    0.0000 C.ar    1  UNL1        0.0729
      7 C           5.4641   -2.0000    0.0000 C.ar    1  UNL1       -0.0470
      8 C           7.1962   -1.0000    0.0000 C.ar    1  UNL1       -0.0470
      9 C           4.5981   -0.5000    0.0000 C.2     1  UNL1        0.3400
     10 C           6.3301    0.5000    0.0000 C.2     1  UNL1        0.3400
     11 C           6.3301   -2.5000    0.0000 C.ar    1  UNL1       -0.0609
     12 C           7.1962   -2.0000    0.0000 C.ar    1  UNL1       -0.0609
     13 C           2.8660   -0.5000    0.0000 C.3     1  UNL1        0.0900
     14 C           7.1962    2.0000    0.0000 C.3     1  UNL1        0.0900
     15 C           2.0000   -1.0000    0.0000 C.3     1  UNL1       -0.0306
     16 C           8.0622    2.5000    0.0000 C.3     1  UNL1       -0.0306
     17 H           4.9272   -2.3100    0.0000 H       1  UNL1        0.0626
     18 H           7.7331   -0.6900    0.0000 H       1  UNL1        0.0626
     19 H           6.3301   -3.1200    0.0000 H       1  UNL1        0.0618
     20 H           7.7331   -2.3100    0.0000 H       1  UNL1        0.0618
     21 H           3.2646   -0.0251    0.0000 H       1  UNL1        0.0695
     22 H           2.4675   -0.0251    0.0000 H       1  UNL1        0.0695
     23 H           6.9841    2.5826    0.0000 H       1  UNL1        0.0695
     24 H           6.5856    1.8923    0.0000 H       1  UNL1        0.0695
     25 H           1.6900   -0.4631    0.0000 H       1  UNL1        0.0262
     26 H           1.4631   -1.3100    0.0000 H       1  UNL1        0.0262
     27 H           2.3100   -1.5369    0.0000 H       1  UNL1        0.0262
     28 H           8.3722    1.9631    0.0000 H       1  UNL1        0.0262
     29 H           8.5991    2.8100    0.0000 H       1  UNL1        0.0262
     30 H           7.7522    3.0369    0.0000 H       1  UNL1        0.0262
@<TRIPOS>BOND
     1     1     9    1
     2     1    13    1
     3     2    10    1
     4     2    14    1
     5     3     9    2
     6     4    10    2
     7     5     6   ar
     8     5     7   ar
     9     5     9    1
    10     6     8   ar
    11     6    10    1
    12     7    11   ar
    13     7    17    1
    14     8    12   ar
    15     8    18    1
    16    11    12   ar
    17    11    19    1
    18    12    20    1
    19    13    15    1
    20    13    21    1
    21    13    22    1
    22    14    16    1
    23    14    23    1
    24    14    24    1
    25    15    25    1
    26    15    26    1
    27    15    27    1
    28    16    28    1
    29    16    29    1
    30    16    30    1
