@<TRIPOS>MOLECULE
IMPHY013884
 29 32 0 0 0
SMALL
GASTEIGER

@<TRIPOS>ATOM
      1 O           5.5933    2.4091    0.0000 O.3     1  UNL1       -0.4951
      2 O           2.0000   -1.0179    0.0000 O.2     1  UNL1       -0.2673
      3 N           3.7602   -1.2061    0.0000 N.ar    1  UNL1       -0.2743
      4 N           5.3799   -3.2770    0.0000 N.ar    1  UNL1       -0.2535
      5 C           4.5692   -1.7939    0.0000 C.ar    1  UNL1        0.0831
      6 C           5.3782   -1.2061    0.0000 C.ar    1  UNL1        0.0117
      7 C           5.0692   -0.2550    0.0000 C.ar    1  UNL1        0.0116
      8 C           4.0692   -0.2550    0.0000 C.ar    1  UNL1        0.0581
      9 C           4.4763   -2.8314    0.0000 C.ar    1  UNL1        0.0885
     10 C           5.6038    0.6389    0.0000 C.ar    1  UNL1       -0.0102
     11 C           2.8022   -1.6150    0.0000 C.ar    1  UNL1        0.2563
     12 C           3.5345    0.6389    0.0000 C.ar    1  UNL1       -0.0337
     13 C           6.2345   -1.7371    0.0000 C.ar    1  UNL1       -0.0338
     14 C           3.5280   -3.2623    0.0000 C.ar    1  UNL1       -0.0291
     15 C           5.0900    1.5450    0.0000 C.ar    1  UNL1        0.1208
     16 C           2.6853   -2.6501    0.0000 C.ar    1  UNL1        0.0054
     17 C           4.0484    1.5450    0.0000 C.ar    1  UNL1       -0.0180
     18 C           6.2353   -2.7446    0.0000 C.ar    1  UNL1        0.0290
     19 C           5.0967    3.2770    0.0000 C.3     1  UNL1        0.0788
     20 H           6.2238    0.6317    0.0000 H       1  UNL1        0.0661
     21 H           2.9146    0.6317    0.0000 H       1  UNL1        0.0640
     22 H           6.7761   -1.4353    0.0000 H       1  UNL1        0.0639
     23 H           3.4656   -3.8792    0.0000 H       1  UNL1        0.0641
     24 H           2.1179   -2.9001    0.0000 H       1  UNL1        0.0672
     25 H           3.7363    2.0807    0.0000 H       1  UNL1        0.0655
     26 H           6.7774   -3.0455    0.0000 H       1  UNL1        0.0830
     27 H           5.6348    3.5849    0.0000 H       1  UNL1        0.0660
     28 H           4.7887    3.8151    0.0000 H       1  UNL1        0.0660
     29 H           4.5585    2.9691    0.0000 H       1  UNL1        0.0660
@<TRIPOS>BOND
     1     1    15    1
     2     1    19    1
     3     2    11    2
     4     3     5   ar
     5     3     8   ar
     6     3    11   ar
     7     4     9   ar
     8     4    18   ar
     9     5     6   ar
    10     5     9   ar
    11     6     7   ar
    12     6    13   ar
    13     7     8   ar
    14     7    10   ar
    15     8    12   ar
    16     9    14   ar
    17    10    15   ar
    18    10    20    1
    19    11    16   ar
    20    12    17   ar
    21    12    21    1
    22    13    18   ar
    23    13    22    1
    24    14    16   ar
    25    14    23    1
    26    15    17   ar
    27    16    24    1
    28    17    25    1
    29    18    26    1
    30    19    27    1
    31    19    28    1
    32    19    29    1
