@<TRIPOS>MOLECULE
IMPHY007647
 55 58 0 0 0
SMALL
GASTEIGER

@<TRIPOS>ATOM
      1 O           3.9061   -1.9174    0.0000 O.3     1  UNL1       -0.4814
      2 O           7.4260   -1.9174    0.0000 O.2     1  UNL1       -0.4618
      3 O           5.6660    1.1173    0.0000 O.3     1  UNL1       -0.5052
      4 O           7.4144    1.1519    0.0000 O.2     1  UNL1       -0.2863
      5 O          10.0680   -1.3552    0.0000 O.3     1  UNL1       -0.5058
      6 O          11.7884    1.6515    0.0000 O.3     1  UNL1       -0.5064
      7 C           3.0000   -1.4035    0.0000 C.3     1  UNL1        0.1235
      8 C           4.8000   -0.3827    0.0000 C.ar    1  UNL1        0.0588
      9 C           4.8000   -1.3827    0.0000 C.ar    1  UNL1        0.1359
     10 C           3.0000   -0.3619    0.0000 C.2     1  UNL1       -0.0408
     11 C           6.5320   -0.3827    0.0000 C.ar    1  UNL1        0.1066
     12 C           5.6660    0.1173    0.0000 C.ar    1  UNL1        0.1418
     13 C           3.9061    0.1520    0.0000 C.2     1  UNL1       -0.0478
     14 C           2.0000   -1.4074    0.0000 C.3     1  UNL1       -0.0215
     15 C           2.5033   -2.2715    0.0000 C.3     1  UNL1       -0.0215
     16 C           6.5320   -1.3827    0.0000 C.ar    1  UNL1        0.1454
     17 C           5.6660   -1.8827    0.0000 C.ar    1  UNL1        0.0239
     18 C           8.3321   -0.3619    0.0000 C.ar    1  UNL1        0.0679
     19 C           7.4260    0.1520    0.0000 C.ar    1  UNL1        0.2038
     20 C           9.1962    0.1415    0.0000 C.ar    1  UNL1        0.0307
     21 C           8.3321   -1.4035    0.0000 C.ar    1  UNL1        0.1040
     22 C          10.0641   -0.3552    0.0000 C.ar    1  UNL1        0.1317
     23 C          10.9282    0.1481    0.0000 C.ar    1  UNL1        0.0397
     24 C           9.1923    1.1414    0.0000 C.ar    1  UNL1       -0.0469
     25 C          11.7961   -0.3485    0.0000 C.3     1  UNL1       -0.0023
     26 C          10.9243    1.1481    0.0000 C.ar    1  UNL1        0.1238
     27 C          10.0564    1.6448    0.0000 C.ar    1  UNL1       -0.0191
     28 C          12.6602    0.1548    0.0000 C.2     1  UNL1       -0.0807
     29 C          13.5282   -0.3418    0.0000 C.2     1  UNL1       -0.0793
     30 C          14.3923    0.1615    0.0000 C.3     1  UNL1       -0.0440
     31 C          13.5320   -1.3418    0.0000 C.3     1  UNL1       -0.0440
     32 H           2.4643   -0.0498    0.0000 H       1  UNL1        0.0611
     33 H           3.9132    0.7719    0.0000 H       1  UNL1        0.0624
     34 H           1.9976   -0.7874    0.0000 H       1  UNL1        0.0271
     35 H           1.3800   -1.4098    0.0000 H       1  UNL1        0.0271
     36 H           2.0024   -2.0274    0.0000 H       1  UNL1        0.0271
     37 H           1.9652   -1.9635    0.0000 H       1  UNL1        0.0271
     38 H           2.1954   -2.8096    0.0000 H       1  UNL1        0.0271
     39 H           3.0415   -2.5794    0.0000 H       1  UNL1        0.0271
     40 H           5.6660   -2.5027    0.0000 H       1  UNL1        0.0691
     41 H           8.8678   -1.7156    0.0000 H       1  UNL1        0.1037
     42 H          11.3994   -0.8250    0.0000 H       1  UNL1        0.0358
     43 H          12.1965   -0.8219    0.0000 H       1  UNL1        0.0358
     44 H           8.6542    1.4494    0.0000 H       1  UNL1        0.0626
     45 H          10.0540    2.2648    0.0000 H       1  UNL1        0.0654
     46 H           5.1291    1.4273    0.0000 H       1  UNL1        0.2922
     47 H          12.6578    0.7748    0.0000 H       1  UNL1        0.0575
     48 H          10.6061   -1.6631    0.0000 H       1  UNL1        0.2922
     49 H          11.7860    2.2715    0.0000 H       1  UNL1        0.2921
     50 H          14.7043   -0.3743    0.0000 H       1  UNL1        0.0274
     51 H          14.9280    0.4736    0.0000 H       1  UNL1        0.0274
     52 H          12.9120   -1.3442    0.0000 H       1  UNL1        0.0274
     53 H          13.5344   -1.9618    0.0000 H       1  UNL1        0.0274
     54 H          14.1520   -1.3394    0.0000 H       1  UNL1        0.0274
     55 H          14.0802    0.6972    0.0000 H       1  UNL1        0.0274
@<TRIPOS>BOND
     1     1     7    1
     2     1     9    1
     3     2    16   ar
     4     2    21   ar
     5     3    12    1
     6     3    46    1
     7     4    19    2
     8     5    22    1
     9     5    48    1
    10     6    26    1
    11     6    49    1
    12     7    10    1
    13     7    14    1
    14     7    15    1
    15     8     9   ar
    16     8    12   ar
    17     8    13    1
    18     9    17   ar
    19    10    13    2
    20    10    32    1
    21    11    12   ar
    22    11    16   ar
    23    11    19   ar
    24    13    33    1
    25    14    34    1
    26    14    35    1
    27    14    36    1
    28    15    37    1
    29    15    38    1
    30    15    39    1
    31    16    17   ar
    32    17    40    1
    33    18    19   ar
    34    18    20    1
    35    18    21   ar
    36    20    22   ar
    37    20    24   ar
    38    21    41    1
    39    22    23   ar
    40    23    25    1
    41    23    26   ar
    42    24    27   ar
    43    24    44    1
    44    25    28    1
    45    25    42    1
    46    25    43    1
    47    26    27   ar
    48    27    45    1
    49    28    29    2
    50    28    47    1
    51    29    30    1
    52    29    31    1
    53    30    50    1
    54    30    51    1
    55    30    55    1
    56    31    52    1
    57    31    53    1
    58    31    54    1
