@<TRIPOS>MOLECULE
IMPHY000773
 12 12 0 0 0
SMALL
GASTEIGER

@<TRIPOS>ATOM
      1 O           2.8660   -2.0000    0.0000 O.2     1  UNL1       -0.2879
      2 O           2.8660    2.0000    0.0000 O.2     1  UNL1       -0.2879
      3 C           2.8660   -1.0000    0.0000 C.2     1  UNL1        0.1792
      4 C           2.8660    1.0000    0.0000 C.2     1  UNL1        0.1792
      5 C           3.7320    0.5000    0.0000 C.2     1  UNL1       -0.0113
      6 C           3.7320   -0.5000    0.0000 C.2     1  UNL1       -0.0113
      7 C           2.0000    0.5000    0.0000 C.2     1  UNL1       -0.0113
      8 C           2.0000   -0.5000    0.0000 C.2     1  UNL1       -0.0113
      9 H           4.2690    0.8100    0.0000 H       1  UNL1        0.0657
     10 H           1.4631    0.8100    0.0000 H       1  UNL1        0.0657
     11 H           4.2690   -0.8100    0.0000 H       1  UNL1        0.0657
     12 H           1.4631   -0.8100    0.0000 H       1  UNL1        0.0657
@<TRIPOS>BOND
     1     1     3    2
     2     2     4    2
     3     3     6    1
     4     3     8    1
     5     4     5    1
     6     4     7    1
     7     5     6    2
     8     5     9    1
     9     6    11    1
    10     7     8    2
    11     7    10    1
    12     8    12    1
