@<TRIPOS>MOLECULE
IMPHY005231
 64 67 0 0 0
SMALL
GASTEIGER

@<TRIPOS>ATOM
      1 O           4.6399   -1.8542    0.0000 O.3     1  UNL1       -0.3833
      2 O           3.7320   -1.3234    0.0000 O.3     1  UNL1       -0.4548
      3 O           3.7478    0.7249    0.0000 O.3     1  UNL1       -0.4573
      4 O           5.0180    2.5878    0.0000 O.3     1  UNL1       -0.3837
      5 O           8.2083   -0.8238    0.0000 O.2     1  UNL1       -0.2967
      6 O           7.9871    2.3888    0.0000 O.2     1  UNL1       -0.4674
      7 O           2.8718    0.1799    0.0000 O.2     1  UNL1       -0.2512
      8 O           3.7679    2.4568    0.0000 O.2     1  UNL1       -0.2512
      9 C           6.4001   -0.8198    0.0000 C.3     1  UNL1        0.0626
     10 C           5.5021   -1.3475    0.0000 C.3     1  UNL1        0.1236
     11 C           6.3840    0.2217    0.0000 C.3     1  UNL1       -0.0100
     12 C           5.5180    0.7217    0.0000 C.3     1  UNL1        0.0368
     13 C           5.4937   -2.4325    0.0000 C.3     1  UNL1       -0.0011
     14 C           4.6000   -0.8267    0.0000 C.3     1  UNL1        0.1699
     15 C           4.6080    0.2149    0.0000 C.3     1  UNL1        0.1485
     16 C           5.5180    1.7217    0.0000 C.3     1  UNL1        0.0979
     17 C           7.2501    0.7217    0.0000 C.3     1  UNL1        0.0101
     18 C           7.3520   -1.3404    0.0000 C.2     1  UNL1        0.1424
     19 C           6.4333   -2.9750    0.0000 C.3     1  UNL1       -0.0384
     20 C           7.2622   -0.3131    0.0000 C.3     1  UNL1       -0.0497
     21 C           7.3688   -2.4253    0.0000 C.3     1  UNL1        0.0071
     22 C           6.3840    2.2217    0.0000 C.ar    1  UNL1        0.0249
     23 C           4.9904   -3.2966    0.0000 C.3     1  UNL1       -0.0570
     24 C           4.5527   -2.7709    0.0000 C.3     1  UNL1       -0.0570
     25 C           7.2501    1.7217    0.0000 C.ar    1  UNL1        0.1110
     26 C           4.5180    1.7217    0.0000 C.3     1  UNL1       -0.0314
     27 C           6.5932    3.1935    0.0000 C.ar    1  UNL1       -0.0177
     28 C           7.5820    3.2966    0.0000 C.ar    1  UNL1        0.0924
     29 C           2.8680   -0.8200    0.0000 C.2     1  UNL1        0.3044
     30 C           3.2579    1.5966    0.0000 C.2     1  UNL1        0.3043
     31 C           2.0000   -1.3167    0.0000 C.3     1  UNL1        0.0332
     32 C           2.2579    1.6082    0.0000 C.3     1  UNL1        0.0332
     33 H           7.1234   -0.1976    0.0000 H       1  UNL1        0.0320
     34 H           4.7852    1.1524    0.0000 H       1  UNL1        0.0372
     35 H           4.0648   -0.5136    0.0000 H       1  UNL1        0.0801
     36 H           4.6164    0.8348    0.0000 H       1  UNL1        0.0776
     37 H           7.4621    0.1391    0.0000 H       1  UNL1        0.0347
     38 H           7.8606    0.8294    0.0000 H       1  UNL1        0.0347
     39 H           6.0360   -3.4510    0.0000 H       1  UNL1        0.0275
     40 H           6.8343   -3.4479    0.0000 H       1  UNL1        0.0275
     41 H           7.5764   -0.8477    0.0000 H       1  UNL1        0.0240
     42 H           7.7968    0.0010    0.0000 H       1  UNL1        0.0240
     43 H           6.9481    0.2214    0.0000 H       1  UNL1        0.0240
     44 H           7.5868   -3.0057    0.0000 H       1  UNL1        0.0342
     45 H           7.9779   -2.3098    0.0000 H       1  UNL1        0.0342
     46 H           4.4546   -2.9845    0.0000 H       1  UNL1        0.0236
     47 H           4.6783   -3.8323    0.0000 H       1  UNL1        0.0236
     48 H           5.5261   -3.6087    0.0000 H       1  UNL1        0.0236
     49 H           4.3429   -2.1875    0.0000 H       1  UNL1        0.0236
     50 H           3.9693   -2.9807    0.0000 H       1  UNL1        0.0236
     51 H           4.7625   -3.3543    0.0000 H       1  UNL1        0.0236
     52 H           4.0199   -1.8590    0.0000 H       1  UNL1        0.2104
     53 H           4.5180    2.3417    0.0000 H       1  UNL1        0.0261
     54 H           3.8980    1.7217    0.0000 H       1  UNL1        0.0261
     55 H           4.5180    1.1017    0.0000 H       1  UNL1        0.0261
     56 H           5.3280    3.1247    0.0000 H       1  UNL1        0.2106
     57 H           6.1792    3.6550    0.0000 H       1  UNL1        0.0653
     58 H           7.8920    3.8335    0.0000 H       1  UNL1        0.1029
     59 H           1.6921   -0.7786    0.0000 H       1  UNL1        0.0342
     60 H           1.4619   -1.6246    0.0000 H       1  UNL1        0.0342
     61 H           2.3079   -1.8548    0.0000 H       1  UNL1        0.0342
     62 H           2.2651    2.2281    0.0000 H       1  UNL1        0.0342
     63 H           1.6380    1.6153    0.0000 H       1  UNL1        0.0342
     64 H           2.2508    0.9882    0.0000 H       1  UNL1        0.0342
@<TRIPOS>BOND
     1    10     1    1
     2     1    52    1
     3    14     2    1
     4     2    29    1
     5    15     3    1
     6     3    30    1
     7    16     4    1
     8     4    56    1
     9     5    18    2
    10     6    25   ar
    11     6    28   ar
    12     7    29    2
    13     8    30    2
    14     9    10    1
    15     9    11    1
    16     9    18    1
    17     9    20    1
    18    10    13    1
    19    10    14    1
    20    11    12    1
    21    11    17    1
    22    11    33    1
    23    12    15    1
    24    12    16    1
    25    12    34    1
    26    13    19    1
    27    13    23    1
    28    13    24    1
    29    14    15    1
    30    14    35    1
    31    15    36    1
    32    16    22    1
    33    16    26    1
    34    17    25    1
    35    17    37    1
    36    17    38    1
    37    18    21    1
    38    19    21    1
    39    19    39    1
    40    19    40    1
    41    20    41    1
    42    20    42    1
    43    20    43    1
    44    21    44    1
    45    21    45    1
    46    22    25   ar
    47    22    27   ar
    48    23    46    1
    49    23    47    1
    50    23    48    1
    51    24    49    1
    52    24    50    1
    53    24    51    1
    54    26    53    1
    55    26    54    1
    56    26    55    1
    57    27    28   ar
    58    27    57    1
    59    28    58    1
    60    29    31    1
    61    30    32    1
    62    31    59    1
    63    31    60    1
    64    31    61    1
    65    32    62    1
    66    32    63    1
    67    32    64    1
