@<TRIPOS>MOLECULE
IMPHY017934
 17 19 0 0 0
SMALL
GASTEIGER

@<TRIPOS>ATOM
      1 O           4.5741   -0.8714    0.0000 O.3     1  UNL1       -0.3567
      2 O           2.8987   -1.7617    0.0000 O.2     1  UNL1       -0.2936
      3 C           3.8001   -0.2382    0.0000 C.3     1  UNL1        0.1427
      4 C           3.8126    0.7617    0.0000 C.3     1  UNL1        0.0292
      5 C           5.9968    0.2345    0.0000 C.3     1  UNL1        0.0066
      6 C           4.8215    0.3560    0.0000 C.3     1  UNL1        0.0327
      7 C           5.5518   -0.6610    0.0000 C.3     1  UNL1        0.0898
      8 C           4.6021    1.3754    0.0000 C.3     1  UNL1        0.0024
      9 C           5.5742    1.1408    0.0000 C.3     1  UNL1       -0.0015
     10 C           2.9254    1.3075    0.0000 C.3     1  UNL1        0.0031
     11 C           2.8996   -0.7617    0.0000 C.2     1  UNL1        0.1747
     12 C           3.8251    1.7617    0.0000 C.3     1  UNL1        0.0028
     13 C           2.0130    0.8050    0.0000 C.3     1  UNL1        0.0079
     14 C           2.0000   -0.2366    0.0000 C.3     1  UNL1        0.0670
     15 C           6.5123   -0.9391    0.0000 C.3     1  UNL1        0.0293
     16 C           5.5842   -1.6605    0.0000 C.3     1  UNL1        0.0293
     17 H           6.7789    0.4027    0.0000 H       1  UNL1        0.0342
@<TRIPOS>BOND
     1     1     3    1
     2     1     7    1
     3     2    11    2
     4     3     4    1
     5     3     6    1
     6     3    11    1
     7     4     8    1
     8     4    10    1
     9     4    12    1
    10     5     6    1
    11     5     7    1
    12     5     9    1
    13     5    17    1
    14     7    15    1
    15     7    16    1
    16     8     9    1
    17    10    13    1
    18    11    14    1
    19    13    14    1
