@<TRIPOS>MOLECULE
IMPHY008266
 46 48 0 0 0
SMALL
GASTEIGER

@<TRIPOS>ATOM
      1 O           6.3981   -0.4254    0.0000 O.3     1  UNL1       -0.4826
      2 O           7.2641   -1.9254    0.0000 O.3     1  UNL1       -0.4945
      3 O           8.9962    1.0746    0.0000 O.3     1  UNL1       -0.4945
      4 O           6.3981    2.5746    0.0000 O.2     1  UNL1       -0.2917
      5 O           4.6497    2.6092    0.0000 O.3     1  UNL1       -0.5058
      6 O          10.7282   -1.9254    0.0000 O.3     1  UNL1       -0.4949
      7 O           2.8680   -0.4495    0.0000 O.3     1  UNL1       -0.4949
      8 C           7.2641    0.0746    0.0000 C.3     1  UNL1        0.1389
      9 C           7.2641    1.0746    0.0000 C.3     1  UNL1        0.0522
     10 C           8.1301   -0.4254    0.0000 C.ar    1  UNL1        0.0764
     11 C           6.3981    1.5746    0.0000 C.2     1  UNL1        0.1740
     12 C           5.5320    1.0746    0.0000 C.ar    1  UNL1        0.1007
     13 C           5.5320    0.0746    0.0000 C.ar    1  UNL1        0.1389
     14 C           8.1301   -1.4254    0.0000 C.ar    1  UNL1        0.1338
     15 C           8.9962    0.0746    0.0000 C.ar    1  UNL1        0.1338
     16 C           4.6381    1.6093    0.0000 C.ar    1  UNL1        0.1343
     17 C           4.6381   -0.4601    0.0000 C.ar    1  UNL1        0.0227
     18 C           8.9962   -1.9254    0.0000 C.ar    1  UNL1        0.0224
     19 C           9.8622   -0.4254    0.0000 C.ar    1  UNL1        0.0224
     20 C           3.7320    0.0538    0.0000 C.ar    1  UNL1        0.1271
     21 C           9.8622   -1.4254    0.0000 C.ar    1  UNL1        0.1271
     22 C           3.7320    1.0954    0.0000 C.ar    1  UNL1        0.0225
     23 C           7.2641   -2.9254    0.0000 C.3     1  UNL1        0.0788
     24 C           9.8622    1.5746    0.0000 C.3     1  UNL1        0.0788
     25 C          11.5942   -1.4254    0.0000 C.3     1  UNL1        0.0788
     26 C           2.0000    0.0471    0.0000 C.3     1  UNL1        0.0788
     27 H           7.2641   -0.5454    0.0000 H       1  UNL1        0.0791
     28 H           7.8747    0.9669    0.0000 H       1  UNL1        0.0385
     29 H           7.4762    1.6572    0.0000 H       1  UNL1        0.0385
     30 H           4.6453   -1.0800    0.0000 H       1  UNL1        0.0691
     31 H           8.9962   -2.5454    0.0000 H       1  UNL1        0.0691
     32 H          10.3991   -0.1154    0.0000 H       1  UNL1        0.0691
     33 H           3.1963    1.4075    0.0000 H       1  UNL1        0.0691
     34 H           4.1164    2.9254    0.0000 H       1  UNL1        0.2922
     35 H           6.6441   -2.9254    0.0000 H       1  UNL1        0.0660
     36 H           7.2641   -3.5454    0.0000 H       1  UNL1        0.0660
     37 H           7.8841   -2.9254    0.0000 H       1  UNL1        0.0660
     38 H          10.1722    1.0377    0.0000 H       1  UNL1        0.0660
     39 H          10.3991    1.8846    0.0000 H       1  UNL1        0.0660
     40 H           9.5522    2.1115    0.0000 H       1  UNL1        0.0660
     41 H          11.9042   -1.9623    0.0000 H       1  UNL1        0.0660
     42 H          12.1312   -1.1154    0.0000 H       1  UNL1        0.0660
     43 H          11.2842   -0.8885    0.0000 H       1  UNL1        0.0660
     44 H           2.3079    0.5852    0.0000 H       1  UNL1        0.0660
     45 H           1.4619    0.3550    0.0000 H       1  UNL1        0.0660
     46 H           1.6921   -0.4910    0.0000 H       1  UNL1        0.0660
@<TRIPOS>BOND
     1     1     8    1
     2     1    13    1
     3     2    14    1
     4     2    23    1
     5     3    15    1
     6     3    24    1
     7     4    11    2
     8     5    16    1
     9     5    34    1
    10     6    21    1
    11     6    25    1
    12     7    20    1
    13     7    26    1
    14     8     9    1
    15     8    10    1
    16     8    27    1
    17     9    11    1
    18     9    28    1
    19     9    29    1
    20    10    14   ar
    21    10    15   ar
    22    11    12    1
    23    12    13   ar
    24    12    16   ar
    25    13    17   ar
    26    14    18   ar
    27    15    19   ar
    28    16    22   ar
    29    17    20   ar
    30    17    30    1
    31    18    21   ar
    32    18    31    1
    33    19    21   ar
    34    19    32    1
    35    20    22   ar
    36    22    33    1
    37    23    35    1
    38    23    36    1
    39    23    37    1
    40    24    38    1
    41    24    39    1
    42    24    40    1
    43    25    41    1
    44    25    42    1
    45    25    43    1
    46    26    44    1
    47    26    45    1
    48    26    46    1
