@<TRIPOS>MOLECULE
IMPHY014119
 30 31 0 0 0
SMALL
GASTEIGER

@<TRIPOS>ATOM
      1 O           2.5369   -0.5950    0.0000 O.3     1  UNL1       -0.5061
      2 O           4.2690   -3.5950    0.0000 O.3     1  UNL1       -0.5066
      3 O           4.2690    2.4050    0.0000 O.2     1  UNL1       -0.2873
      4 C           4.2690   -0.5950    0.0000 C.ar    1  UNL1        0.0168
      5 C           3.4030   -1.0950    0.0000 C.ar    1  UNL1        0.1274
      6 C           6.0010    2.4050    0.0000 C.ar    1  UNL1        0.0217
      7 C           4.2690    0.4050    0.0000 C.2     1  UNL1       -0.0475
      8 C           5.1350   -1.0950    0.0000 C.ar    1  UNL1       -0.0477
      9 C           3.4030   -2.0950    0.0000 C.ar    1  UNL1        0.0219
     10 C           5.1350    1.9050    0.0000 C.2     1  UNL1        0.1861
     11 C           5.1350    0.9050    0.0000 C.2     1  UNL1       -0.0137
     12 C           5.1350   -2.0950    0.0000 C.ar    1  UNL1       -0.0194
     13 C           4.2690   -2.5950    0.0000 C.ar    1  UNL1        0.1204
     14 C           6.8671    1.9050    0.0000 C.ar    1  UNL1       -0.0509
     15 C           6.0010    3.4050    0.0000 C.ar    1  UNL1       -0.0509
     16 C           7.7331    2.4050    0.0000 C.ar    1  UNL1       -0.0611
     17 C           6.8671    3.9050    0.0000 C.ar    1  UNL1       -0.0611
     18 C           7.7331    3.4050    0.0000 C.ar    1  UNL1       -0.0617
     19 H           3.7320    0.7150    0.0000 H       1  UNL1        0.0626
     20 H           5.6720   -0.7850    0.0000 H       1  UNL1        0.0626
     21 H           2.8660   -2.4050    0.0000 H       1  UNL1        0.0691
     22 H           5.6720    0.5950    0.0000 H       1  UNL1        0.0656
     23 H           5.6720   -2.4050    0.0000 H       1  UNL1        0.0654
     24 H           6.8671    1.2850    0.0000 H       1  UNL1        0.0625
     25 H           5.4641    3.7150    0.0000 H       1  UNL1        0.0625
     26 H           8.2700    2.0950    0.0000 H       1  UNL1        0.0618
     27 H           6.8671    4.5250    0.0000 H       1  UNL1        0.0618
     28 H           8.2700    3.7150    0.0000 H       1  UNL1        0.0618
     29 H           2.0000   -0.9050    0.0000 H       1  UNL1        0.2922
     30 H           4.8059   -3.9050    0.0000 H       1  UNL1        0.2921
@<TRIPOS>BOND
     1     1     5    1
     2     1    29    1
     3     2    13    1
     4     2    30    1
     5     3    10    2
     6     4     5   ar
     7     4     7    1
     8     4     8   ar
     9     5     9   ar
    10     6    10    1
    11     6    14   ar
    12     6    15   ar
    13     7    11    2
    14     7    19    1
    15     8    12   ar
    16     8    20    1
    17     9    13   ar
    18     9    21    1
    19    10    11    1
    20    11    22    1
    21    12    13   ar
    22    12    23    1
    23    14    16   ar
    24    14    24    1
    25    15    17   ar
    26    15    25    1
    27    16    18   ar
    28    16    26    1
    29    17    18   ar
    30    17    27    1
    31    18    28    1
