@<TRIPOS>MOLECULE
IMPHY005008
 30 33 0 0 0
SMALL
GASTEIGER

@<TRIPOS>ATOM
      1 O           5.6783   -0.7535    0.0000 O.2     1  UNL1       -0.4537
      2 O           7.8223    1.3150    0.0000 O.2     1  UNL1       -0.4178
      3 O           6.5352    2.4740    0.0000 O.2     1  UNL1       -0.2444
      4 O           9.8139    0.9140    0.0000 O.3     1  UNL1       -0.5032
      5 O           2.8182    2.0935    0.0000 O.3     1  UNL1       -0.5033
      6 O           2.1888    0.1508    0.0000 O.3     1  UNL1       -0.5032
      7 O           9.0913   -2.5513    0.0000 O.3     1  UNL1       -0.5066
      8 C           6.1750    0.7798    0.0000 C.ar    1  UNL1        0.1129
      9 C           6.4840   -0.1713    0.0000 C.ar    1  UNL1        0.1540
     10 C           5.1810    0.7772    0.0000 C.ar    1  UNL1        0.0385
     11 C           7.4622   -0.3792    0.0000 C.ar    1  UNL1        0.0675
     12 C           4.8746   -0.1685    0.0000 C.ar    1  UNL1        0.1402
     13 C           8.1313    0.3640    0.0000 C.ar    1  UNL1        0.1840
     14 C           6.8442    1.5229    0.0000 C.ar    1  UNL1        0.3489
     15 C           4.4994    1.5567    0.0000 C.ar    1  UNL1       -0.0050
     16 C           7.7688   -1.3747    0.0000 C.ar    1  UNL1       -0.0057
     17 C           3.8654   -0.4002    0.0000 C.ar    1  UNL1        0.0264
     18 C           9.1534    0.1631    0.0000 C.ar    1  UNL1        0.1634
     19 C           3.4851    1.3484    0.0000 C.ar    1  UNL1        0.1590
     20 C           3.1660    0.3633    0.0000 C.ar    1  UNL1        0.1618
     21 C           8.7859   -1.5991    0.0000 C.ar    1  UNL1        0.1212
     22 C           9.4829   -0.8250    0.0000 C.ar    1  UNL1        0.0250
     23 H           4.6973    2.1443    0.0000 H       1  UNL1        0.0662
     24 H           7.3486   -1.8306    0.0000 H       1  UNL1        0.0662
     25 H           3.6812   -0.9922    0.0000 H       1  UNL1        0.0692
     26 H          10.0899   -0.9516    0.0000 H       1  UNL1        0.0692
     27 H          10.4218    0.7921    0.0000 H       1  UNL1        0.2923
     28 H           3.0115    2.6826    0.0000 H       1  UNL1        0.2923
     29 H           2.0000   -0.4398    0.0000 H       1  UNL1        0.2923
     30 H           9.6972   -2.6826    0.0000 H       1  UNL1        0.2921
@<TRIPOS>BOND
     1     1     9   ar
     2     1    12   ar
     3     2    13   ar
     4     2    14   ar
     5     3    14    2
     6     4    18    1
     7     4    27    1
     8     5    19    1
     9     5    28    1
    10     6    20    1
    11     6    29    1
    12     7    21    1
    13     7    30    1
    14     8     9   ar
    15     8    10   ar
    16     8    14   ar
    17     9    11   ar
    18    10    12   ar
    19    10    15   ar
    20    11    13   ar
    21    11    16   ar
    22    12    17   ar
    23    13    18   ar
    24    15    19   ar
    25    15    23    1
    26    16    21   ar
    27    16    24    1
    28    17    20   ar
    29    17    25    1
    30    18    22   ar
    31    19    20   ar
    32    21    22   ar
    33    22    26    1
