@<TRIPOS>MOLECULE
IMPHY007488
 43 44 0 0 0
SMALL
GASTEIGER

@<TRIPOS>ATOM
      1 O           2.8660    0.5950    0.0000 O.2     1  UNL1       -0.2970
      2 O           3.7320    2.0950    0.0000 O.2     1  UNL1       -0.2970
      3 O           2.8660   -5.4050    0.0000 O.3     1  UNL1       -0.5068
      4 O           8.9282    5.0950    0.0000 O.3     1  UNL1       -0.5068
      5 C           3.7320   -0.9050    0.0000 C.3     1  UNL1        0.0102
      6 C           5.4641    2.0950    0.0000 C.3     1  UNL1        0.0102
      7 C           2.8660   -1.4050    0.0000 C.3     1  UNL1       -0.0210
      8 C           5.4641    3.0950    0.0000 C.3     1  UNL1       -0.0210
      9 C           4.5981    0.5950    0.0000 C.3     1  UNL1        0.0643
     10 C           4.5981    1.5950    0.0000 C.2     1  UNL1        0.1407
     11 C           3.7320    0.0950    0.0000 C.2     1  UNL1        0.1407
     12 C           2.8660   -2.4050    0.0000 C.ar    1  UNL1       -0.0467
     13 C           6.3301    3.5950    0.0000 C.ar    1  UNL1       -0.0467
     14 C           2.0000   -2.9050    0.0000 C.ar    1  UNL1       -0.0551
     15 C           7.1962    3.0950    0.0000 C.ar    1  UNL1       -0.0551
     16 C           3.7320   -2.9050    0.0000 C.ar    1  UNL1       -0.0551
     17 C           6.3301    4.5950    0.0000 C.ar    1  UNL1       -0.0551
     18 C           2.0000   -3.9050    0.0000 C.ar    1  UNL1       -0.0199
     19 C           8.0622    3.5950    0.0000 C.ar    1  UNL1       -0.0199
     20 C           3.7320   -3.9050    0.0000 C.ar    1  UNL1       -0.0199
     21 C           7.1962    5.0950    0.0000 C.ar    1  UNL1       -0.0199
     22 C           2.8660   -4.4050    0.0000 C.ar    1  UNL1        0.1169
     23 C           8.0622    4.5950    0.0000 C.ar    1  UNL1        0.1169
     24 H           3.9441   -1.4876    0.0000 H       1  UNL1        0.0345
     25 H           4.3426   -0.7973    0.0000 H       1  UNL1        0.0345
     26 H           5.6762    1.5124    0.0000 H       1  UNL1        0.0345
     27 H           6.0747    2.2027    0.0000 H       1  UNL1        0.0345
     28 H           5.2520    3.6776    0.0000 H       1  UNL1        0.0317
     29 H           4.8535    2.9873    0.0000 H       1  UNL1        0.0317
     30 H           2.6540   -0.8224    0.0000 H       1  UNL1        0.0317
     31 H           2.2554   -1.5127    0.0000 H       1  UNL1        0.0317
     32 H           4.8101    0.0124    0.0000 H       1  UNL1        0.0419
     33 H           5.2087    0.7027    0.0000 H       1  UNL1        0.0419
     34 H           1.4631   -2.5950    0.0000 H       1  UNL1        0.0621
     35 H           7.1962    2.4750    0.0000 H       1  UNL1        0.0621
     36 H           4.2690   -2.5950    0.0000 H       1  UNL1        0.0621
     37 H           5.7932    4.9050    0.0000 H       1  UNL1        0.0621
     38 H           1.4631   -4.2150    0.0000 H       1  UNL1        0.0654
     39 H           8.5991    3.2850    0.0000 H       1  UNL1        0.0654
     40 H           4.2690   -4.2150    0.0000 H       1  UNL1        0.0654
     41 H           7.1962    5.7150    0.0000 H       1  UNL1        0.0654
     42 H           2.3291   -5.7150    0.0000 H       1  UNL1        0.2921
     43 H           8.9282    5.7150    0.0000 H       1  UNL1        0.2921
@<TRIPOS>BOND
     1     1    11    2
     2     2    10    2
     3     3    22    1
     4     3    42    1
     5     4    23    1
     6     4    43    1
     7     5     7    1
     8     5    11    1
     9     5    24    1
    10     5    25    1
    11     6     8    1
    12     6    10    1
    13     6    26    1
    14     6    27    1
    15     7    12    1
    16     7    30    1
    17     7    31    1
    18     8    13    1
    19     8    28    1
    20     8    29    1
    21     9    10    1
    22     9    11    1
    23     9    32    1
    24     9    33    1
    25    12    14   ar
    26    12    16   ar
    27    13    15   ar
    28    13    17   ar
    29    14    18   ar
    30    14    34    1
    31    15    19   ar
    32    15    35    1
    33    16    20   ar
    34    16    36    1
    35    17    21   ar
    36    17    37    1
    37    18    22   ar
    38    18    38    1
    39    19    23   ar
    40    19    39    1
    41    20    22   ar
    42    20    40    1
    43    21    23   ar
    44    21    41    1
