@<TRIPOS>MOLECULE
IMPHY002965
 24 25 0 0 0
SMALL
GASTEIGER

@<TRIPOS>ATOM
      1 O           3.7320    2.0000    0.0000 O.2     1  UNL1       -0.2652
      2 O           2.0000   -1.0000    0.0000 O.2     1  UNL1       -0.2462
      3 N           3.7320   -1.0000    0.0000 N.ar    1  UNL1       -0.2796
      4 N           5.5443    0.8047    0.0000 N.ar    1  UNL1       -0.3277
      5 N           2.8660    0.5000    0.0000 N.ar    1  UNL1       -0.2622
      6 N           5.5443   -0.8047    0.0000 N.ar    1  UNL1       -0.2177
      7 C           4.5981    0.5000    0.0000 C.ar    1  UNL1        0.1512
      8 C           4.5981   -0.5000    0.0000 C.ar    1  UNL1        0.1678
      9 C           3.7320    1.0000    0.0000 C.ar    1  UNL1        0.2822
     10 C           2.8660   -0.5000    0.0000 C.ar    1  UNL1        0.3331
     11 C           6.1279    0.0000    0.0000 C.ar    1  UNL1        0.0986
     12 C           3.7320   -2.0000    0.0000 C.3     1  UNL1        0.0181
     13 C           5.8550    1.7552    0.0000 C.3     1  UNL1        0.0135
     14 C           2.0000    1.0000    0.0000 C.3     1  UNL1        0.0196
     15 H           6.7479   -0.0000    0.0000 H       1  UNL1        0.1029
     16 H           3.1120   -2.0000    0.0000 H       1  UNL1        0.0458
     17 H           3.7320   -2.6200    0.0000 H       1  UNL1        0.0458
     18 H           4.3520   -2.0000    0.0000 H       1  UNL1        0.0458
     19 H           6.4443    1.5626    0.0000 H       1  UNL1        0.0456
     20 H           6.0476    2.3446    0.0000 H       1  UNL1        0.0456
     21 H           5.2656    1.9479    0.0000 H       1  UNL1        0.0456
     22 H           2.3100    1.5369    0.0000 H       1  UNL1        0.0458
     23 H           1.4631    1.3100    0.0000 H       1  UNL1        0.0458
     24 H           1.6900    0.4631    0.0000 H       1  UNL1        0.0458
@<TRIPOS>BOND
     1     1     9    2
     2     2    10    2
     3     3     8   ar
     4     3    10   ar
     5     3    12    1
     6     4     7   ar
     7     4    11   ar
     8     4    13    1
     9     5     9   ar
    10     5    10   ar
    11     5    14    1
    12     6     8   ar
    13     6    11   ar
    14     7     8   ar
    15     7     9   ar
    16    11    15    1
    17    12    16    1
    18    12    17    1
    19    12    18    1
    20    13    19    1
    21    13    20    1
    22    13    21    1
    23    14    22    1
    24    14    23    1
    25    14    24    1
