@<TRIPOS>MOLECULE
IMPHY016246
 33 35 0 0 0
SMALL
GASTEIGER

@<TRIPOS>ATOM
      1 O           7.7258   -1.5712    0.0000 O.3     1  UNL1       -0.3762
      2 C           5.4133   -0.6556    0.0000 C.3     1  UNL1        0.0164
      3 C           5.6721    0.3103    0.0000 C.3     1  UNL1       -0.0098
      4 C           4.9355    1.2929    0.0000 C.3     1  UNL1       -0.0275
      5 C           6.8122   -1.1644    0.0000 C.3     1  UNL1        0.0740
      6 C           7.0711   -0.1985    0.0000 C.3     1  UNL1       -0.0163
      7 C           4.0406   -1.2476    0.0000 C.ar    1  UNL1       -0.0378
      8 C           3.6986   -0.3079    0.0000 C.ar    1  UNL1       -0.0404
      9 C           4.4355    2.1590    0.0000 C.3     1  UNL1       -0.0612
     10 C           6.7077   -2.1590    0.0000 C.3     1  UNL1       -0.0352
     11 C           3.3834   -2.0558    0.0000 C.ar    1  UNL1       -0.0579
     12 C           2.6757   -0.1113    0.0000 C.ar    1  UNL1       -0.0580
     13 C           2.3563   -1.8828    0.0000 C.ar    1  UNL1       -0.0615
     14 C           2.0000   -0.9040    0.0000 C.ar    1  UNL1       -0.0615
     15 C           8.5348   -0.9834    0.0000 C.3     1  UNL1        0.0372
     16 H           5.8748   -0.2416    0.0000 H       1  UNL1        0.0380
     17 H           6.0415    0.8083    0.0000 H       1  UNL1        0.0353
     18 H           5.4529    1.6345    0.0000 H       1  UNL1        0.0311
     19 H           7.6650   -0.3763    0.0000 H       1  UNL1        0.0299
     20 H           7.2660    0.3901    0.0000 H       1  UNL1        0.0299
     21 H           4.9724    2.4690    0.0000 H       1  UNL1        0.0233
     22 H           4.1255    2.6959    0.0000 H       1  UNL1        0.0233
     23 H           3.8986    1.8490    0.0000 H       1  UNL1        0.0233
     24 H           6.0911   -2.0942    0.0000 H       1  UNL1        0.0257
     25 H           6.6429   -2.7756    0.0000 H       1  UNL1        0.0257
     26 H           7.3243   -2.2238    0.0000 H       1  UNL1        0.0257
     27 H           3.6022   -2.6359    0.0000 H       1  UNL1        0.0620
     28 H           2.4704    0.4738    0.0000 H       1  UNL1        0.0620
     29 H           1.9596   -2.3593    0.0000 H       1  UNL1        0.0618
     30 H           1.3898   -0.7940    0.0000 H       1  UNL1        0.0618
     31 H           8.8992   -1.4850    0.0000 H       1  UNL1        0.0524
     32 H           9.0364   -0.6190    0.0000 H       1  UNL1        0.0524
     33 H           8.1704   -0.4818    0.0000 H       1  UNL1        0.0524
@<TRIPOS>BOND
     1     1     5    1
     2     1    15    1
     3     2     4    1
     4     2     5    1
     5     2     7    1
     6     2    16    1
     7     3     4    1
     8     3     6    1
     9     3     8    1
    10     3    17    1
    11     4     9    1
    12     4    18    1
    13     5     6    1
    14     5    10    1
    15     6    19    1
    16     6    20    1
    17     7     8   ar
    18     7    11   ar
    19     8    12   ar
    20     9    21    1
    21     9    22    1
    22     9    23    1
    23    10    24    1
    24    10    25    1
    25    10    26    1
    26    11    13   ar
    27    11    27    1
    28    12    14   ar
    29    12    28    1
    30    13    14   ar
    31    13    29    1
    32    14    30    1
    33    15    31    1
    34    15    32    1
    35    15    33    1
