@<TRIPOS>MOLECULE
IMPHY002892
 75 79 0 0 0
SMALL
GASTEIGER

@<TRIPOS>ATOM
      1 O           6.8671   -4.6175    0.0000 O.3     1  UNL1       -0.3366
      2 O           7.8376   -3.1230    0.0000 O.3     1  UNL1       -0.3457
      3 O           5.1350   -2.6176    0.0000 O.3     1  UNL1       -0.3313
      4 O          10.1818   -3.2811    0.0000 O.3     1  UNL1       -0.3812
      5 O           8.8546   -5.5024    0.0000 O.3     1  UNL1       -0.3837
      6 O           5.1350   -5.6175    0.0000 O.3     1  UNL1       -0.3863
      7 O           6.8671   -2.6176    0.0000 O.3     1  UNL1       -0.4572
      8 O           3.4030   -4.6175    0.0000 O.3     1  UNL1       -0.3865
      9 O          11.0100   -4.1412    0.0000 O.3     1  UNL1       -0.3920
     10 O           2.5369   -3.1176    0.0000 O.3     1  UNL1       -0.3924
     11 O           5.1350   -1.6176    0.0000 O.3     1  UNL1       -0.4914
     12 O           7.7331    1.8824    0.0000 O.2     1  UNL1       -0.4544
     13 O           5.1350    3.3824    0.0000 O.2     1  UNL1       -0.2869
     14 O           5.9793    4.9139    0.0000 O.3     1  UNL1       -0.5058
     15 O           9.5191    4.9276    0.0000 O.3     1  UNL1       -0.4949
     16 C           6.0010   -4.1175    0.0000 C.3     1  UNL1        0.1519
     17 C           9.3158   -3.7811    0.0000 C.3     1  UNL1        0.1425
     18 C           8.6466   -4.5243    0.0000 C.3     1  UNL1        0.1387
     19 C           5.1350   -4.6175    0.0000 C.3     1  UNL1        0.1155
     20 C           7.7331   -4.1175    0.0000 C.3     1  UNL1        0.1885
     21 C           4.2690   -4.1175    0.0000 C.3     1  UNL1        0.1120
     22 C           6.0010   -3.1176    0.0000 C.3     1  UNL1        0.2313
     23 C           4.2690   -3.1176    0.0000 C.3     1  UNL1        0.1140
     24 C           8.8158   -2.9151    0.0000 C.3     1  UNL1        0.0843
     25 C          10.0589   -4.4503    0.0000 C.3     1  UNL1        0.0778
     26 C           3.4030   -2.6176    0.0000 C.3     1  UNL1        0.0731
     27 C           6.8671   -1.6176    0.0000 C.ar    1  UNL1        0.1654
     28 C           6.0010   -1.1176    0.0000 C.ar    1  UNL1        0.1623
     29 C           7.7331   -1.1176    0.0000 C.ar    1  UNL1       -0.0155
     30 C           6.0010   -0.1175    0.0000 C.ar    1  UNL1       -0.0056
     31 C           7.7331   -0.1175    0.0000 C.ar    1  UNL1       -0.0474
     32 C           6.8671    0.3825    0.0000 C.ar    1  UNL1        0.0211
     33 C           6.8671    1.3824    0.0000 C.ar    1  UNL1        0.1393
     34 C           4.2690   -1.1176    0.0000 C.3     1  UNL1        0.0790
     35 C           6.0010    1.8824    0.0000 C.ar    1  UNL1        0.0288
     36 C           7.7331    2.8824    0.0000 C.ar    1  UNL1        0.1462
     37 C           6.8671    3.3824    0.0000 C.ar    1  UNL1        0.1055
     38 C           6.0010    2.8824    0.0000 C.ar    1  UNL1        0.1966
     39 C           8.6431    3.3893    0.0000 C.ar    1  UNL1        0.0233
     40 C           6.8510    4.4240    0.0000 C.ar    1  UNL1        0.1347
     41 C           8.6511    4.4309    0.0000 C.ar    1  UNL1        0.1271
     42 C           7.7490    4.9517    0.0000 C.ar    1  UNL1        0.0225
     43 C           9.5229    5.9276    0.0000 C.3     1  UNL1        0.0788
     44 H           6.5380   -3.8076    0.0000 H       1  UNL1        0.0687
     45 H           9.2455   -4.6848    0.0000 H       1  UNL1        0.0675
     46 H           5.6720   -4.9276    0.0000 H       1  UNL1        0.0648
     47 H           7.7655   -4.7367    0.0000 H       1  UNL1        0.0938
     48 H           3.7320   -3.8076    0.0000 H       1  UNL1        0.0647
     49 H           6.0010   -2.4976    0.0000 H       1  UNL1        0.1084
     50 H           4.2690   -2.4976    0.0000 H       1  UNL1        0.0647
     51 H           9.3822   -2.6629    0.0000 H       1  UNL1        0.0591
     52 H           8.6242   -2.3255    0.0000 H       1  UNL1        0.0591
     53 H           9.5703   -4.8320    0.0000 H       1  UNL1        0.0587
     54 H          10.3500   -4.9977    0.0000 H       1  UNL1        0.0587
     55 H           3.8015   -2.1426    0.0000 H       1  UNL1        0.0584
     56 H           3.0044   -2.1426    0.0000 H       1  UNL1        0.0584
     57 H          10.1818   -2.6611    0.0000 H       1  UNL1        0.2105
     58 H           8.3938   -5.9173    0.0000 H       1  UNL1        0.2101
     59 H           4.5981   -5.9276    0.0000 H       1  UNL1        0.2100
     60 H           3.4030   -5.2376    0.0000 H       1  UNL1        0.2100
     61 H          11.4707   -4.5561    0.0000 H       1  UNL1        0.2095
     62 H           2.0000   -2.8076    0.0000 H       1  UNL1        0.2095
     63 H           8.2700   -1.4276    0.0000 H       1  UNL1        0.0655
     64 H           5.4641    0.1925    0.0000 H       1  UNL1        0.0662
     65 H           8.2700    0.1925    0.0000 H       1  UNL1        0.0626
     66 H           4.5790   -0.5806    0.0000 H       1  UNL1        0.0660
     67 H           3.7320   -0.8075    0.0000 H       1  UNL1        0.0660
     68 H           3.9590   -1.6545    0.0000 H       1  UNL1        0.0660
     69 H           5.4641    1.5724    0.0000 H       1  UNL1        0.0693
     70 H           9.1764    3.0731    0.0000 H       1  UNL1        0.0691
     71 H           7.7466    5.5717    0.0000 H       1  UNL1        0.0691
     72 H           5.9721    5.5339    0.0000 H       1  UNL1        0.2922
     73 H          10.1429    5.9252    0.0000 H       1  UNL1        0.0660
     74 H           9.5253    6.5475    0.0000 H       1  UNL1        0.0660
     75 H           8.9029    5.9299    0.0000 H       1  UNL1        0.0660
@<TRIPOS>BOND
     1    16     1    1
     2    20     1    1
     3     2    20    1
     4     2    24    1
     5     3    22    1
     6     3    23    1
     7    17     4    1
     8     4    57    1
     9    18     5    1
    10     5    58    1
    11    19     6    1
    12     6    59    1
    13    22     7    1
    14     7    27    1
    15    21     8    1
    16     8    60    1
    17     9    25    1
    18     9    61    1
    19    10    26    1
    20    10    62    1
    21    11    28    1
    22    11    34    1
    23    12    33   ar
    24    12    36   ar
    25    13    38    2
    26    14    40    1
    27    14    72    1
    28    15    41    1
    29    15    43    1
    30    16    19    1
    31    16    22    1
    32    16    44    1
    33    17    18    1
    34    17    24    1
    35    17    25    1
    36    18    20    1
    37    18    45    1
    38    19    21    1
    39    19    46    1
    40    20    47    1
    41    21    23    1
    42    21    48    1
    43    22    49    1
    44    23    26    1
    45    23    50    1
    46    24    51    1
    47    24    52    1
    48    25    53    1
    49    25    54    1
    50    26    55    1
    51    26    56    1
    52    27    28   ar
    53    27    29   ar
    54    28    30   ar
    55    29    31   ar
    56    29    63    1
    57    30    32   ar
    58    30    64    1
    59    31    32   ar
    60    31    65    1
    61    32    33    1
    62    33    35   ar
    63    34    66    1
    64    34    67    1
    65    34    68    1
    66    35    38   ar
    67    35    69    1
    68    36    37   ar
    69    36    39   ar
    70    37    38   ar
    71    37    40   ar
    72    39    41   ar
    73    39    70    1
    74    40    42   ar
    75    41    42   ar
    76    42    71    1
    77    43    73    1
    78    43    74    1
    79    43    75    1
