@<TRIPOS>MOLECULE
IMPHY013033
 44 47 0 0 0
SMALL
GASTEIGER

@<TRIPOS>ATOM
      1 O           7.5587   -2.9004    0.0000 O.2     1  UNL1       -0.3010
      2 N           6.9654    1.7077    0.0000 N.3     1  UNL1       -0.2898
      3 N           4.5124    0.5902    0.0000 N.ar    1  UNL1       -0.3564
      4 C           6.2962    0.9645    0.0000 C.3     1  UNL1        0.0518
      5 C           6.6028   -0.0310    0.0000 C.3     1  UNL1       -0.0249
      6 C           7.6200   -0.2554    0.0000 C.3     1  UNL1       -0.0105
      7 C           5.3181    1.1724    0.0000 C.ar    1  UNL1        0.0376
      8 C           7.9875    1.5068    0.0000 C.3     1  UNL1        0.0209
      9 C           6.6564    2.6587    0.0000 C.3     1  UNL1        0.0039
     10 C           5.0091    2.1235    0.0000 C.ar    1  UNL1       -0.0164
     11 C           8.3170    0.5187    0.0000 C.2     1  UNL1       -0.0562
     12 C           5.6782    2.8666    0.0000 C.3     1  UNL1       -0.0125
     13 C           7.9253   -1.2076    0.0000 C.3     1  UNL1        0.0094
     14 C           4.0150    2.1209    0.0000 C.ar    1  UNL1        0.0032
     15 C           3.7086    1.1752    0.0000 C.ar    1  UNL1        0.0470
     16 C           9.2959    0.3146    0.0000 C.2     1  UNL1       -0.0864
     17 C           3.3334    2.9004    0.0000 C.ar    1  UNL1       -0.0523
     18 C           2.6994    0.9435    0.0000 C.ar    1  UNL1       -0.0378
     19 C           7.2533   -1.9482    0.0000 C.2     1  UNL1        0.1209
     20 C           9.6086   -0.6353    0.0000 C.3     1  UNL1       -0.0465
     21 C           2.3191    2.6921    0.0000 C.ar    1  UNL1       -0.0611
     22 C           2.0000    1.7070    0.0000 C.ar    1  UNL1       -0.0598
     23 H           5.7226    0.3373    0.0000 H       1  UNL1        0.0527
     24 H           5.9878   -0.1094    0.0000 H       1  UNL1        0.0290
     25 H           6.5748   -0.6503    0.0000 H       1  UNL1        0.0290
     26 H           8.2262   -0.3855    0.0000 H       1  UNL1        0.0351
     27 H           8.6005    1.5994    0.0000 H       1  UNL1        0.0473
     28 H           8.0011    2.1267    0.0000 H       1  UNL1        0.0473
     29 H           7.2703    2.7450    0.0000 H       1  UNL1        0.0430
     30 H           6.6780    3.2784    0.0000 H       1  UNL1        0.0430
     31 H           5.9105    3.4415    0.0000 H       1  UNL1        0.0326
     32 H           5.1524    3.1952    0.0000 H       1  UNL1        0.0326
     33 H           8.3052   -1.6976    0.0000 H       1  UNL1        0.0345
     34 H           8.4739   -0.9187    0.0000 H       1  UNL1        0.0345
     35 H           4.5113   -0.0298    0.0000 H       1  UNL1        0.1656
     36 H           9.7090    0.7769    0.0000 H       1  UNL1        0.0569
     37 H           3.5313    3.4880    0.0000 H       1  UNL1        0.0624
     38 H           2.5152    0.3515    0.0000 H       1  UNL1        0.0638
     39 H           6.6474   -1.8169    0.0000 H       1  UNL1        0.1026
     40 H           9.0197   -0.8292    0.0000 H       1  UNL1        0.0272
     41 H           9.8024   -1.2242    0.0000 H       1  UNL1        0.0272
     42 H          10.1975   -0.4414    0.0000 H       1  UNL1        0.0272
     43 H           1.9056    3.1541    0.0000 H       1  UNL1        0.0618
     44 H           1.3942    1.5752    0.0000 H       1  UNL1        0.0618
@<TRIPOS>BOND
     1     1    19    2
     2     2     4    1
     3     2     8    1
     4     2     9    1
     5     3     7   ar
     6     3    15   ar
     7     3    35    1
     8     4     5    1
     9     4     7    1
    10     4    23    1
    11     5     6    1
    12     5    24    1
    13     5    25    1
    14     6    11    1
    15     6    13    1
    16     6    26    1
    17     7    10   ar
    18     8    11    1
    19     8    27    1
    20     8    28    1
    21     9    12    1
    22     9    29    1
    23     9    30    1
    24    10    12    1
    25    10    14   ar
    26    11    16    2
    27    12    31    1
    28    12    32    1
    29    13    19    1
    30    13    33    1
    31    13    34    1
    32    14    15   ar
    33    14    17   ar
    34    15    18   ar
    35    16    20    1
    36    16    36    1
    37    17    21   ar
    38    17    37    1
    39    18    22   ar
    40    18    38    1
    41    19    39    1
    42    20    40    1
    43    20    41    1
    44    20    42    1
    45    21    22   ar
    46    21    43    1
    47    22    44    1
