@<TRIPOS>MOLECULE
IMPHY004387
 34 36 0 0 0
SMALL
GASTEIGER

@<TRIPOS>ATOM
      1 O           6.0682   -0.6154    0.0000 O.2     1  UNL1       -0.4507
      2 O           7.8003    1.3846    0.0000 O.3     1  UNL1       -0.4883
      3 O           4.3198    2.4192    0.0000 O.3     1  UNL1       -0.5058
      4 O           6.0682    2.3846    0.0000 O.2     1  UNL1       -0.2830
      5 O           2.5381   -0.6395    0.0000 O.3     1  UNL1       -0.5065
      6 O          10.3984   -2.1154    0.0000 O.3     1  UNL1       -0.5068
      7 C           5.2022    0.8846    0.0000 C.ar    1  UNL1        0.1092
      8 C           5.2022   -0.1154    0.0000 C.ar    1  UNL1        0.1465
      9 C           6.9343   -0.1154    0.0000 C.ar    1  UNL1        0.1808
     10 C           6.9343    0.8846    0.0000 C.ar    1  UNL1        0.2107
     11 C           6.0682    1.3846    0.0000 C.ar    1  UNL1        0.2381
     12 C           7.8003   -0.6154    0.0000 C.ar    1  UNL1        0.0213
     13 C           4.3083    1.4193    0.0000 C.ar    1  UNL1        0.1348
     14 C           4.3083   -0.6501    0.0000 C.ar    1  UNL1        0.0231
     15 C           3.4022    0.9054    0.0000 C.ar    1  UNL1        0.0223
     16 C           3.4022   -0.1362    0.0000 C.ar    1  UNL1        0.1239
     17 C           7.8003   -1.6154    0.0000 C.ar    1  UNL1       -0.0475
     18 C           8.6663   -0.1154    0.0000 C.ar    1  UNL1       -0.0475
     19 C           8.6663   -2.1154    0.0000 C.ar    1  UNL1       -0.0195
     20 C           9.5323   -0.6154    0.0000 C.ar    1  UNL1       -0.0195
     21 C           9.5323   -1.6154    0.0000 C.ar    1  UNL1        0.1169
     22 C           7.8003    2.3846    0.0000 C.3     1  UNL1        0.0791
     23 H           4.3154   -1.2700    0.0000 H       1  UNL1        0.0691
     24 H           2.8665    1.2175    0.0000 H       1  UNL1        0.0691
     25 H           7.2634   -1.9254    0.0000 H       1  UNL1        0.0626
     26 H           8.6663    0.5046    0.0000 H       1  UNL1        0.0626
     27 H           8.6663   -2.7354    0.0000 H       1  UNL1        0.0654
     28 H          10.0693   -0.3054    0.0000 H       1  UNL1        0.0654
     29 H           3.7865    2.7354    0.0000 H       1  UNL1        0.2922
     30 H           8.4203    2.3846    0.0000 H       1  UNL1        0.0660
     31 H           7.8003    3.0046    0.0000 H       1  UNL1        0.0660
     32 H           7.1803    2.3846    0.0000 H       1  UNL1        0.0660
     33 H           2.0000   -0.3316    0.0000 H       1  UNL1        0.2921
     34 H          10.3984   -2.7354    0.0000 H       1  UNL1        0.2921
@<TRIPOS>BOND
     1     1     8   ar
     2     1     9   ar
     3     2    10    1
     4     2    22    1
     5     3    13    1
     6     3    29    1
     7     4    11    2
     8     5    16    1
     9     5    33    1
    10     6    21    1
    11     6    34    1
    12     7     8   ar
    13     7    11   ar
    14     7    13   ar
    15     8    14   ar
    16     9    10   ar
    17     9    12    1
    18    10    11   ar
    19    12    17   ar
    20    12    18   ar
    21    13    15   ar
    22    14    16   ar
    23    14    23    1
    24    15    16   ar
    25    15    24    1
    26    17    19   ar
    27    17    25    1
    28    18    20   ar
    29    18    26    1
    30    19    21   ar
    31    19    27    1
    32    20    21   ar
    33    20    28    1
    34    22    30    1
    35    22    31    1
    36    22    32    1
