@<TRIPOS>MOLECULE
IMPHY013351
 63 62 0 0 0
SMALL
GASTEIGER

@<TRIPOS>ATOM
      1 O           6.3301    0.4400    0.0000 O.3     1  UNL1       -0.4646
      2 O           7.1962   -1.0600    0.0000 O.2     1  UNL1       -0.2509
      3 C          11.5263    0.4400    0.0000 C.3     1  UNL1       -0.0531
      4 C          12.3923   -0.0600    0.0000 C.3     1  UNL1       -0.0531
      5 C          10.6603   -0.0600    0.0000 C.3     1  UNL1       -0.0530
      6 C          13.2583    0.4400    0.0000 C.3     1  UNL1       -0.0530
      7 C           9.7942    0.4400    0.0000 C.3     1  UNL1       -0.0526
      8 C          14.1244   -0.0600    0.0000 C.3     1  UNL1       -0.0528
      9 C          14.9904    0.4400    0.0000 C.3     1  UNL1       -0.0496
     10 C           8.9282   -0.0600    0.0000 C.3     1  UNL1       -0.0430
     11 C          15.8564   -0.0600    0.0000 C.3     1  UNL1       -0.0348
     12 C           8.0622    0.4400    0.0000 C.3     1  UNL1        0.0449
     13 C          16.7224    0.4400    0.0000 C.2     1  UNL1       -0.0879
     14 C           7.1962   -0.0600    0.0000 C.2     1  UNL1        0.3071
     15 C           4.5981    0.4400    0.0000 C.3     1  UNL1       -0.0185
     16 C           3.7320   -0.0600    0.0000 C.3     1  UNL1       -0.0502
     17 C           5.4641   -0.0600    0.0000 C.3     1  UNL1        0.0925
     18 C          17.5885   -0.0600    0.0000 C.2     1  UNL1       -0.0879
     19 C           2.8660    0.4400    0.0000 C.3     1  UNL1       -0.0558
     20 C          18.4545    0.4400    0.0000 C.3     1  UNL1       -0.0350
     21 C          19.3205   -0.0600    0.0000 C.3     1  UNL1       -0.0525
     22 C           2.0000   -0.0600    0.0000 C.3     1  UNL1       -0.0653
     23 C          20.1865    0.4400    0.0000 C.3     1  UNL1       -0.0650
     24 H          11.9248    0.9149    0.0000 H       1  UNL1        0.0265
     25 H          11.1278    0.9149    0.0000 H       1  UNL1        0.0265
     26 H          11.9938   -0.5349    0.0000 H       1  UNL1        0.0265
     27 H          12.7908   -0.5349    0.0000 H       1  UNL1        0.0265
     28 H          10.2617   -0.5349    0.0000 H       1  UNL1        0.0265
     29 H          11.0588   -0.5349    0.0000 H       1  UNL1        0.0265
     30 H          13.6569    0.9149    0.0000 H       1  UNL1        0.0265
     31 H          12.8598    0.9149    0.0000 H       1  UNL1        0.0265
     32 H          10.1928    0.9149    0.0000 H       1  UNL1        0.0265
     33 H           9.3957    0.9149    0.0000 H       1  UNL1        0.0265
     34 H          13.7258   -0.5349    0.0000 H       1  UNL1        0.0265
     35 H          14.5229   -0.5349    0.0000 H       1  UNL1        0.0265
     36 H          15.3889    0.9149    0.0000 H       1  UNL1        0.0268
     37 H          14.5919    0.9149    0.0000 H       1  UNL1        0.0268
     38 H           8.5297   -0.5349    0.0000 H       1  UNL1        0.0270
     39 H           9.3267   -0.5349    0.0000 H       1  UNL1        0.0270
     40 H          15.4579   -0.5349    0.0000 H       1  UNL1        0.0307
     41 H          16.2549   -0.5349    0.0000 H       1  UNL1        0.0307
     42 H           8.4607    0.9149    0.0000 H       1  UNL1        0.0377
     43 H           7.6636    0.9149    0.0000 H       1  UNL1        0.0377
     44 H          16.7224    1.0600    0.0000 H       1  UNL1        0.0569
     45 H           4.9966    0.9149    0.0000 H       1  UNL1        0.0298
     46 H           4.1996    0.9149    0.0000 H       1  UNL1        0.0298
     47 H           3.3335   -0.5349    0.0000 H       1  UNL1        0.0266
     48 H           4.1306   -0.5349    0.0000 H       1  UNL1        0.0266
     49 H           5.0656   -0.5349    0.0000 H       1  UNL1        0.0697
     50 H           5.8626   -0.5349    0.0000 H       1  UNL1        0.0697
     51 H          17.5885   -0.6800    0.0000 H       1  UNL1        0.0569
     52 H           3.2646    0.9149    0.0000 H       1  UNL1        0.0263
     53 H           2.4675    0.9149    0.0000 H       1  UNL1        0.0263
     54 H          18.8530    0.9149    0.0000 H       1  UNL1        0.0307
     55 H          18.0560    0.9149    0.0000 H       1  UNL1        0.0307
     56 H          18.9220   -0.5349    0.0000 H       1  UNL1        0.0266
     57 H          19.7190   -0.5349    0.0000 H       1  UNL1        0.0266
     58 H           1.6900    0.4769    0.0000 H       1  UNL1        0.0230
     59 H           1.4631   -0.3700    0.0000 H       1  UNL1        0.0230
     60 H           2.3100   -0.5969    0.0000 H       1  UNL1        0.0230
     61 H          20.4965   -0.0969    0.0000 H       1  UNL1        0.0230
     62 H          20.7235    0.7500    0.0000 H       1  UNL1        0.0230
     63 H          19.8765    0.9769    0.0000 H       1  UNL1        0.0230
@<TRIPOS>BOND
     1     1    14    1
     2     1    17    1
     3     2    14    2
     4     3     4    1
     5     3     5    1
     6     3    24    1
     7     3    25    1
     8     4     6    1
     9     4    26    1
    10     4    27    1
    11     5     7    1
    12     5    28    1
    13     5    29    1
    14     6     8    1
    15     6    30    1
    16     6    31    1
    17     7    10    1
    18     7    32    1
    19     7    33    1
    20     8     9    1
    21     8    34    1
    22     8    35    1
    23     9    11    1
    24     9    36    1
    25     9    37    1
    26    10    12    1
    27    10    38    1
    28    10    39    1
    29    11    13    1
    30    11    40    1
    31    11    41    1
    32    12    14    1
    33    12    42    1
    34    12    43    1
    35    13    18    2
    36    13    44    1
    37    15    16    1
    38    15    17    1
    39    15    45    1
    40    15    46    1
    41    16    19    1
    42    16    47    1
    43    16    48    1
    44    17    49    1
    45    17    50    1
    46    18    20    1
    47    18    51    1
    48    19    22    1
    49    19    52    1
    50    19    53    1
    51    20    21    1
    52    20    54    1
    53    20    55    1
    54    21    23    1
    55    21    56    1
    56    21    57    1
    57    22    58    1
    58    22    59    1
    59    22    60    1
    60    23    61    1
    61    23    62    1
    62    23    63    1
