@<TRIPOS>MOLECULE
IMPHY004662
 42 42 0 0 0
SMALL
GASTEIGER

@<TRIPOS>ATOM
      1 O           6.3301    1.2694    0.0000 O.3     1  UNL1       -0.3918
      2 O           2.0000   -1.2306    0.0000 O.2     1  UNL1       -0.2920
      3 O           3.3660   -4.2694    0.0000 O.2     1  UNL1       -0.4703
      4 C           4.5981    0.2694    0.0000 C.3     1  UNL1       -0.0412
      5 C           4.5981    1.2694    0.0000 C.3     1  UNL1       -0.0242
      6 C           5.4641    1.7694    0.0000 C.3     1  UNL1        0.0557
      7 C           5.4641    2.7694    0.0000 C.3     1  UNL1       -0.0245
      8 C           3.7320   -0.2306    0.0000 C.3     1  UNL1       -0.0434
      9 C           6.3301    3.2694    0.0000 C.3     1  UNL1       -0.0444
     10 C           5.4641   -0.2306    0.0000 C.3     1  UNL1       -0.0623
     11 C           3.7320   -1.2306    0.0000 C.3     1  UNL1        0.0108
     12 C           6.3301    4.2694    0.0000 C.3     1  UNL1       -0.0626
     13 C           7.1962    2.7694    0.0000 C.3     1  UNL1       -0.0626
     14 C           2.8660   -1.7306    0.0000 C.2     1  UNL1        0.1662
     15 C           2.8660   -2.7306    0.0000 C.ar    1  UNL1        0.0550
     16 C           2.0570   -3.3184    0.0000 C.ar    1  UNL1       -0.0134
     17 C           3.6750   -3.3184    0.0000 C.ar    1  UNL1        0.1021
     18 C           2.3660   -4.2694    0.0000 C.ar    1  UNL1        0.0924
     19 H           4.5981   -0.5806    0.0000 H       1  UNL1        0.0299
     20 H           4.3860    1.8520    0.0000 H       1  UNL1        0.0293
     21 H           3.9875    1.1618    0.0000 H       1  UNL1        0.0293
     22 H           5.4641    0.9194    0.0000 H       1  UNL1        0.0593
     23 H           5.2520    3.3520    0.0000 H       1  UNL1        0.0293
     24 H           4.8535    2.6618    0.0000 H       1  UNL1        0.0293
     25 H           3.5200    0.3520    0.0000 H       1  UNL1        0.0272
     26 H           3.1215   -0.3382    0.0000 H       1  UNL1        0.0272
     27 H           6.8671    3.5794    0.0000 H       1  UNL1        0.0296
     28 H           5.1541   -0.7675    0.0000 H       1  UNL1        0.0232
     29 H           6.0010   -0.5406    0.0000 H       1  UNL1        0.0232
     30 H           5.7741    0.3064    0.0000 H       1  UNL1        0.0232
     31 H           3.9441   -1.8132    0.0000 H       1  UNL1        0.0345
     32 H           4.3426   -1.1229    0.0000 H       1  UNL1        0.0345
     33 H           6.9501    4.2694    0.0000 H       1  UNL1        0.0232
     34 H           6.3301    4.8894    0.0000 H       1  UNL1        0.0232
     35 H           5.7101    4.2694    0.0000 H       1  UNL1        0.0232
     36 H           6.8862    2.2325    0.0000 H       1  UNL1        0.0232
     37 H           7.7331    2.4594    0.0000 H       1  UNL1        0.0232
     38 H           7.5062    3.3064    0.0000 H       1  UNL1        0.0232
     39 H           6.8671    1.5794    0.0000 H       1  UNL1        0.2098
     40 H           1.4674   -3.1268    0.0000 H       1  UNL1        0.0656
     41 H           4.2647   -3.1268    0.0000 H       1  UNL1        0.1036
     42 H           2.0016   -4.7710    0.0000 H       1  UNL1        0.1029
@<TRIPOS>BOND
     1     1     6    1
     2     1    39    1
     3     2    14    2
     4     3    17   ar
     5     3    18   ar
     6     4     5    1
     7     4     8    1
     8     4    10    1
     9     4    19    1
    10     5     6    1
    11     5    20    1
    12     5    21    1
    13     6     7    1
    14     6    22    1
    15     7     9    1
    16     7    23    1
    17     7    24    1
    18     8    11    1
    19     8    25    1
    20     8    26    1
    21     9    12    1
    22     9    13    1
    23     9    27    1
    24    10    28    1
    25    10    29    1
    26    10    30    1
    27    11    14    1
    28    11    31    1
    29    11    32    1
    30    12    33    1
    31    12    34    1
    32    12    35    1
    33    13    36    1
    34    13    37    1
    35    13    38    1
    36    14    15    1
    37    15    16   ar
    38    15    17   ar
    39    16    18   ar
    40    16    40    1
    41    17    41    1
    42    18    42    1
