@<TRIPOS>MOLECULE
IMPHY007683
 74 78 0 0 0
SMALL
GASTEIGER

@<TRIPOS>ATOM
      1 O           5.6385    4.3472    0.0000 O.3     1  UNL1       -0.4602
      2 O           7.4190    4.8410    0.0000 O.2     1  UNL1       -0.2505
      3 O           6.3946   -1.5310    0.0000 O.3     1  UNL1       -0.3407
      4 O           2.1966    3.6893    0.0000 O.3     1  UNL1       -0.4647
      5 O           3.8948    4.0298    0.0000 O.2     1  UNL1       -0.2453
      6 O           4.6626   -1.5310    0.0000 O.3     1  UNL1       -0.3405
      7 O           8.3433    1.1714    0.0000 O.2     1  UNL1       -0.4707
      8 O           6.3946   -3.5310    0.0000 O.3     1  UNL1       -0.3841
      9 O           4.6626   -4.5310    0.0000 O.3     1  UNL1       -0.3864
     10 O           2.9305   -3.5310    0.0000 O.3     1  UNL1       -0.3865
     11 O           2.9305   -0.5310    0.0000 O.3     1  UNL1       -0.3924
     12 C           5.5286    0.9690    0.0000 C.3     1  UNL1       -0.0127
     13 C           4.5341    1.0735    0.0000 C.3     1  UNL1       -0.0215
     14 C           4.3262    2.0517    0.0000 C.3     1  UNL1        0.0397
     15 C           6.5787    2.7376    0.0000 C.3     1  UNL1        0.0655
     16 C           5.5862    2.8595    0.0000 C.3     1  UNL1        0.1136
     17 C           7.2139    1.6866    0.0000 C.3     1  UNL1       -0.0014
     18 C           3.7708    0.3647    0.0000 C.3     1  UNL1       -0.0453
     19 C           5.5286   -0.0310    0.0000 C.3     1  UNL1       -0.0158
     20 C           3.3406    2.3888    0.0000 C.2     1  UNL1        0.0423
     21 C           6.3946    0.4690    0.0000 C.3     1  UNL1       -0.0584
     22 C           6.6310    4.2253    0.0000 C.2     1  UNL1        0.3111
     23 C           4.1182    3.0298    0.0000 C.3     1  UNL1       -0.0516
     24 C           2.7777    0.6789    0.0000 C.3     1  UNL1       -0.0337
     25 C           2.5612    1.6978    0.0000 C.2     1  UNL1       -0.0734
     26 C           6.3946   -0.5310    0.0000 C.3     1  UNL1        0.0902
     27 C           3.1440    3.3693    0.0000 C.2     1  UNL1        0.3352
     28 C           7.2606   -0.0310    0.0000 C.ar    1  UNL1        0.0189
     29 C           5.5286   -2.0310    0.0000 C.3     1  UNL1        0.1886
     30 C           8.1742   -0.4377    0.0000 C.ar    1  UNL1       -0.0183
     31 C           7.3652    0.9635    0.0000 C.ar    1  UNL1        0.0973
     32 C           5.5286   -3.0310    0.0000 C.3     1  UNL1        0.1341
     33 C           4.6626   -3.5310    0.0000 C.3     1  UNL1        0.1141
     34 C           3.7966   -2.0310    0.0000 C.3     1  UNL1        0.1130
     35 C           3.7966   -3.0310    0.0000 C.3     1  UNL1        0.1119
     36 C           8.8433    0.3054    0.0000 C.ar    1  UNL1        0.0920
     37 C           2.0000    4.6698    0.0000 C.3     1  UNL1        0.0820
     38 C           2.9305   -1.5310    0.0000 C.3     1  UNL1        0.0730
     39 H           4.7108    0.2421    0.0000 H       1  UNL1        0.0316
     40 H           7.4224    2.6341    0.0000 H       1  UNL1        0.0420
     41 H           4.7425    2.9631    0.0000 H       1  UNL1        0.0743
     42 H           7.0694    1.0836    0.0000 H       1  UNL1        0.0309
     43 H           7.8265    1.7818    0.0000 H       1  UNL1        0.0309
     44 H           3.4854   -0.1857    0.0000 H       1  UNL1        0.0271
     45 H           4.2643   -0.0107    0.0000 H       1  UNL1        0.0271
     46 H           4.9180    0.0767    0.0000 H       1  UNL1        0.0299
     47 H           5.3166   -0.6136    0.0000 H       1  UNL1        0.0299
     48 H           6.0846   -0.0679    0.0000 H       1  UNL1        0.0235
     49 H           6.9316    0.1590    0.0000 H       1  UNL1        0.0235
     50 H           6.7046    1.0059    0.0000 H       1  UNL1        0.0235
     51 H           4.7247    3.1587    0.0000 H       1  UNL1        0.0239
     52 H           3.9894    3.6363    0.0000 H       1  UNL1        0.0239
     53 H           3.5118    2.9009    0.0000 H       1  UNL1        0.0239
     54 H           2.1582    0.6557    0.0000 H       1  UNL1        0.0308
     55 H           2.6946    0.0645    0.0000 H       1  UNL1        0.0308
     56 H           1.9722    1.8917    0.0000 H       1  UNL1        0.0577
     57 H           5.8577   -0.8410    0.0000 H       1  UNL1        0.0648
     58 H           6.0655   -2.3410    0.0000 H       1  UNL1        0.0938
     59 H           8.3031   -1.0442    0.0000 H       1  UNL1        0.0652
     60 H           6.9044    1.3784    0.0000 H       1  UNL1        0.1033
     61 H           5.5286   -3.6510    0.0000 H       1  UNL1        0.0671
     62 H           4.1256   -3.8410    0.0000 H       1  UNL1        0.0648
     63 H           3.7966   -1.4110    0.0000 H       1  UNL1        0.0647
     64 H           3.7966   -3.6510    0.0000 H       1  UNL1        0.0647
     65 H           9.4599    0.2406    0.0000 H       1  UNL1        0.1029
     66 H           2.6079    4.7916    0.0000 H       1  UNL1        0.0661
     67 H           1.8781    5.2777    0.0000 H       1  UNL1        0.0661
     68 H           1.3921    4.5479    0.0000 H       1  UNL1        0.0661
     69 H           2.3199   -1.4233    0.0000 H       1  UNL1        0.0584
     70 H           2.7185   -2.1136    0.0000 H       1  UNL1        0.0584
     71 H           6.9316   -3.2210    0.0000 H       1  UNL1        0.2101
     72 H           4.1256   -4.8410    0.0000 H       1  UNL1        0.2100
     73 H           2.3936   -3.2210    0.0000 H       1  UNL1        0.2100
     74 H           2.3936   -0.2210    0.0000 H       1  UNL1        0.2095
@<TRIPOS>BOND
     1     1    16    1
     2     1    22    1
     3     2    22    2
     4    26     3    1
     5    29     3    1
     6     4    27    1
     7     4    37    1
     8     5    27    2
     9     6    29    1
    10     6    34    1
    11     7    31   ar
    12     7    36   ar
    13    32     8    1
    14     8    71    1
    15    33     9    1
    16     9    72    1
    17    35    10    1
    18    10    73    1
    19    11    38    1
    20    11    74    1
    21    12    13    1
    22    12    15    1
    23    12    19    1
    24    12    21    1
    25    13    14    1
    26    13    18    1
    27    13    39    1
    28    14    16    1
    29    14    20    1
    30    14    23    1
    31    15    17    1
    32    15    22    1
    33    15    40    1
    34    16    17    1
    35    16    41    1
    36    17    42    1
    37    17    43    1
    38    18    24    1
    39    18    44    1
    40    18    45    1
    41    19    26    1
    42    19    46    1
    43    19    47    1
    44    20    25    2
    45    20    27    1
    46    21    48    1
    47    21    49    1
    48    21    50    1
    49    23    51    1
    50    23    52    1
    51    23    53    1
    52    24    25    1
    53    24    54    1
    54    24    55    1
    55    25    56    1
    56    26    28    1
    57    26    57    1
    58    28    30   ar
    59    28    31   ar
    60    29    32    1
    61    29    58    1
    62    30    36   ar
    63    30    59    1
    64    31    60    1
    65    32    33    1
    66    32    61    1
    67    33    35    1
    68    33    62    1
    69    34    35    1
    70    34    38    1
    71    34    63    1
    72    35    64    1
    73    36    65    1
    74    37    66    1
    75    37    67    1
    76    37    68    1
    77    38    69    1
    78    38    70    1
