@<TRIPOS>MOLECULE
IMPHY005628
 23 22 0 0 0
SMALL
GASTEIGER

@<TRIPOS>ATOM
      1 N           4.2690    0.5950    0.0000 N.pl3   1  UNL1       -0.1138
      2 N           8.5991    0.0950    0.0000 N.3     1  UNL1       -0.3300
      3 N           2.5369    0.5950    0.0000 N.pl3   1  UNL1       -0.2893
      4 N           3.4030   -0.9050    0.0000 N.pl3   1  UNL1       -0.2893
      5 C           6.0010    0.5950    0.0000 C.3     1  UNL1       -0.0175
      6 C           6.8671    0.0950    0.0000 C.3     1  UNL1       -0.0377
      7 C           5.1350    0.0950    0.0000 C.3     1  UNL1        0.1047
      8 C           7.7331    0.5950    0.0000 C.3     1  UNL1       -0.0068
      9 C           3.4030    0.0950    0.0000 C.cat   1  UNL1        0.3765
     10 H           6.3996    1.0700    0.0000 H       1  UNL1        0.0297
     11 H           5.6025    1.0700    0.0000 H       1  UNL1        0.0297
     12 H           6.4685   -0.3799    0.0000 H       1  UNL1        0.0278
     13 H           7.2656   -0.3799    0.0000 H       1  UNL1        0.0278
     14 H           4.7365   -0.3799    0.0000 H       1  UNL1        0.0693
     15 H           5.5335   -0.3799    0.0000 H       1  UNL1        0.0693
     16 H           8.1316    1.0700    0.0000 H       1  UNL1        0.0422
     17 H           7.3346    1.0700    0.0000 H       1  UNL1        0.0422
     18 H           9.1360    0.4050    0.0000 H       1  UNL1        0.1182
     19 H           8.5991   -0.5250    0.0000 H       1  UNL1        0.1182
     20 H           2.0000    0.2850    0.0000 H       1  UNL1        0.2546
     21 H           3.9399   -1.2150    0.0000 H       1  UNL1        0.2546
     22 H           2.8660   -1.2150    0.0000 H       1  UNL1        0.2546
     23 H           2.5369    1.2150    0.0000 H       1  UNL1        0.2546
@<TRIPOS>BOND
     1     1     7    1
     2     1     9    2
     3     2     8    1
     4     2    18    1
     5     2    19    1
     6     3     9    1
     7     3    20    1
     8     3    23    1
     9     4     9    1
    10     4    21    1
    11     4    22    1
    12     5     6    1
    13     5     7    1
    14     5    10    1
    15     5    11    1
    16     6     8    1
    17     6    12    1
    18     6    13    1
    19     7    14    1
    20     7    15    1
    21     8    16    1
    22     8    17    1
