@<TRIPOS>MOLECULE
IMPHY003975
 53 56 0 0 0
SMALL
GASTEIGER

@<TRIPOS>ATOM
      1 O           6.3782   -2.7666    0.0000 O.3     1  UNL1       -0.4641
      2 O           4.8837   -1.7960    0.0000 O.2     1  UNL1       -0.2505
      3 O          11.8712   -1.2594    0.0000 O.3     1  UNL1       -0.4526
      4 O          11.8712   -2.8689    0.0000 O.3     1  UNL1       -0.4526
      5 O           4.0215    2.3950    0.0000 O.3     1  UNL1       -0.4913
      6 O           2.9511   -0.8995    0.0000 O.3     1  UNL1       -0.4913
      7 O           2.5352    1.0568    0.0000 O.3     1  UNL1       -0.4885
      8 C           7.4609   -1.5642    0.0000 C.3     1  UNL1        0.0105
      9 C           6.5474   -1.1574    0.0000 C.3     1  UNL1        0.0666
     10 C           7.3564   -2.5587    0.0000 C.3     1  UNL1        0.0963
     11 C           8.3269   -1.0642    0.0000 C.3     1  UNL1       -0.0209
     12 C           6.3395   -0.1793    0.0000 C.3     1  UNL1       -0.0141
     13 C           5.8782   -1.9006    0.0000 C.2     1  UNL1        0.3109
     14 C           9.1930   -1.5642    0.0000 C.ar    1  UNL1       -0.0433
     15 C           5.3884    0.1297    0.0000 C.ar    1  UNL1       -0.0394
     16 C          10.0590   -1.0642    0.0000 C.ar    1  UNL1       -0.0130
     17 C           9.1930   -2.5642    0.0000 C.ar    1  UNL1       -0.0549
     18 C           4.6453   -0.5394    0.0000 C.ar    1  UNL1       -0.0129
     19 C           5.1805    1.1079    0.0000 C.ar    1  UNL1       -0.0129
     20 C          10.9250   -1.5642    0.0000 C.ar    1  UNL1        0.1665
     21 C          10.0590   -3.0642    0.0000 C.ar    1  UNL1       -0.0159
     22 C          10.9250   -2.5642    0.0000 C.ar    1  UNL1        0.1662
     23 C           4.2294    1.4169    0.0000 C.ar    1  UNL1        0.1654
     24 C           3.6942   -0.2304    0.0000 C.ar    1  UNL1        0.1654
     25 C           3.4863    0.7478    0.0000 C.ar    1  UNL1        0.2035
     26 C          12.4548   -2.0642    0.0000 C.3     1  UNL1        0.2332
     27 C           4.7647    3.0642    0.0000 C.3     1  UNL1        0.0790
     28 C           2.0000   -0.5905    0.0000 C.3     1  UNL1        0.0790
     29 C           2.3273    2.0349    0.0000 C.3     1  UNL1        0.0791
     30 H           7.9809   -1.9018    0.0000 H       1  UNL1        0.0345
     31 H           5.9485   -0.9970    0.0000 H       1  UNL1        0.0420
     32 H           7.4212   -3.1753    0.0000 H       1  UNL1        0.0700
     33 H           7.9764   -2.5587    0.0000 H       1  UNL1        0.0700
     34 H           8.7255   -0.5892    0.0000 H       1  UNL1        0.0317
     35 H           7.9284   -0.5892    0.0000 H       1  UNL1        0.0317
     36 H           6.9591   -0.1577    0.0000 H       1  UNL1        0.0321
     37 H           6.4258    0.4347    0.0000 H       1  UNL1        0.0321
     38 H          10.0590   -0.4442    0.0000 H       1  UNL1        0.0658
     39 H           8.6560   -2.8742    0.0000 H       1  UNL1        0.0621
     40 H           4.7742   -1.1458    0.0000 H       1  UNL1        0.0658
     41 H           5.6412    1.5227    0.0000 H       1  UNL1        0.0658
     42 H          10.0590   -3.6842    0.0000 H       1  UNL1        0.0655
     43 H          12.9157   -2.4789    0.0000 H       1  UNL1        0.1166
     44 H          12.9157   -1.6494    0.0000 H       1  UNL1        0.1166
     45 H           5.1795    2.6034    0.0000 H       1  UNL1        0.0660
     46 H           5.2254    3.4790    0.0000 H       1  UNL1        0.0660
     47 H           4.3498    3.5249    0.0000 H       1  UNL1        0.0660
     48 H           2.1916   -0.0008    0.0000 H       1  UNL1        0.0660
     49 H           1.4103   -0.3989    0.0000 H       1  UNL1        0.0660
     50 H           1.8084   -1.1802    0.0000 H       1  UNL1        0.0660
     51 H           2.9338    2.1638    0.0000 H       1  UNL1        0.0660
     52 H           2.1984    2.6414    0.0000 H       1  UNL1        0.0660
     53 H           1.7209    1.9060    0.0000 H       1  UNL1        0.0660
@<TRIPOS>BOND
     1     1    10    1
     2     1    13    1
     3     2    13    2
     4     3    20    1
     5     3    26    1
     6     4    22    1
     7     4    26    1
     8     5    23    1
     9     5    27    1
    10     6    24    1
    11     6    28    1
    12     7    25    1
    13     7    29    1
    14     8     9    1
    15     8    10    1
    16     8    11    1
    17     8    30    1
    18     9    12    1
    19     9    13    1
    20     9    31    1
    21    10    32    1
    22    10    33    1
    23    11    14    1
    24    11    34    1
    25    11    35    1
    26    12    15    1
    27    12    36    1
    28    12    37    1
    29    14    16   ar
    30    14    17   ar
    31    15    18   ar
    32    15    19   ar
    33    16    20   ar
    34    16    38    1
    35    17    21   ar
    36    17    39    1
    37    18    24   ar
    38    18    40    1
    39    19    23   ar
    40    19    41    1
    41    20    22   ar
    42    21    22   ar
    43    21    42    1
    44    23    25   ar
    45    24    25   ar
    46    26    43    1
    47    26    44    1
    48    27    45    1
    49    27    46    1
    50    27    47    1
    51    28    48    1
    52    28    49    1
    53    28    50    1
    54    29    51    1
    55    29    52    1
    56    29    53    1
