@<TRIPOS>MOLECULE
IMPHY006637
 40 42 0 0 0
SMALL
GASTEIGER

@<TRIPOS>ATOM
      1 O           7.6925   -1.6050    0.0000 O.3     1  UNL1       -0.3870
      2 C           4.5725   -1.0958    0.0000 C.3     1  UNL1       -0.0299
      3 C           5.7936   -0.2301    0.0000 C.3     1  UNL1        0.0008
      4 C           3.7435   -0.5366    0.0000 C.3     1  UNL1       -0.0345
      5 C           2.9617   -1.1506    0.0000 C.3     1  UNL1       -0.0407
      6 C           4.0191    0.4247    0.0000 C.3     1  UNL1       -0.0431
      7 C           6.0524    0.7358    0.0000 C.3     1  UNL1       -0.0174
      8 C           4.2960   -2.0506    0.0000 C.3     1  UNL1       -0.0491
      9 C           4.8158    1.5845    0.0000 C.3     1  UNL1       -0.0442
     10 C           7.1925   -0.7389    0.0000 C.3     1  UNL1        0.0819
     11 C           3.3025   -2.0845    0.0000 C.3     1  UNL1       -0.0499
     12 C           5.6818    2.0845    0.0000 C.3     1  UNL1       -0.0458
     13 C           7.4513    0.2270    0.0000 C.2     1  UNL1       -0.0449
     14 C           5.5347   -1.1960    0.0000 C.3     1  UNL1       -0.0566
     15 C           2.0000   -0.8766    0.0000 C.3     1  UNL1       -0.0622
     16 C           8.3173    0.7270    0.0000 C.2     1  UNL1       -0.0967
     17 H           5.0779   -1.4550    0.0000 H       1  UNL1        0.0310
     18 H           3.2290   -0.1905    0.0000 H       1  UNL1        0.0306
     19 H           2.5395   -1.6046    0.0000 H       1  UNL1        0.0301
     20 H           4.0141    1.0447    0.0000 H       1  UNL1        0.0274
     21 H           3.4048    0.5085    0.0000 H       1  UNL1        0.0274
     22 H           5.9914    0.1188    0.0000 H       1  UNL1        0.0346
     23 H           4.2519   -2.6690    0.0000 H       1  UNL1        0.0268
     24 H           4.9064   -2.1595    0.0000 H       1  UNL1        0.0268
     25 H           4.5110    2.1244    0.0000 H       1  UNL1        0.0272
     26 H           4.2729    1.2850    0.0000 H       1  UNL1        0.0272
     27 H           6.7940   -1.2139    0.0000 H       1  UNL1        0.0646
     28 H           2.7010   -2.2346    0.0000 H       1  UNL1        0.0268
     29 H           3.3886   -2.6984    0.0000 H       1  UNL1        0.0268
     30 H           6.2635    2.2990    0.0000 H       1  UNL1        0.0271
     31 H           5.4186    2.6458    0.0000 H       1  UNL1        0.0271
     32 H           4.9359   -1.0356    0.0000 H       1  UNL1        0.0236
     33 H           5.3743   -1.7949    0.0000 H       1  UNL1        0.0236
     34 H           6.1336   -1.3565    0.0000 H       1  UNL1        0.0236
     35 H           2.1699   -0.2804    0.0000 H       1  UNL1        0.0233
     36 H           1.4037   -0.7068    0.0000 H       1  UNL1        0.0233
     37 H           1.8301   -1.4729    0.0000 H       1  UNL1        0.0233
     38 H           8.3125   -1.6050    0.0000 H       1  UNL1        0.2102
     39 H           8.8543    0.4170    0.0000 H       1  UNL1        0.0535
     40 H           8.3173    1.3470    0.0000 H       1  UNL1        0.0535
@<TRIPOS>BOND
     1     1    10    1
     2     1    38    1
     3     2     3    1
     4     2     4    1
     5     2     8    1
     6     2    17    1
     7     3     9    1
     8     3    10    1
     9     3    14    1
    10     4     5    1
    11     4     6    1
    12     4    18    1
    13     5    11    1
    14     5    15    1
    15     5    19    1
    16     6     7    1
    17     6    20    1
    18     6    21    1
    19     7    12    1
    20     7    13    1
    21     7    22    1
    22     8    11    1
    23     8    23    1
    24     8    24    1
    25     9    12    1
    26     9    25    1
    27     9    26    1
    28    10    13    1
    29    10    27    1
    30    11    28    1
    31    11    29    1
    32    12    30    1
    33    12    31    1
    34    13    16    2
    35    14    32    1
    36    14    33    1
    37    14    34    1
    38    15    35    1
    39    15    36    1
    40    15    37    1
    41    16    39    1
    42    16    40    1
