@<TRIPOS>MOLECULE
IMPHY010856
 41 42 0 0 0
SMALL
GASTEIGER

@<TRIPOS>ATOM
      1 O           2.5369   -1.4330    0.0000 O.3     1  UNL1       -0.3875
      2 O           6.6193    2.0181    0.0000 O.2     1  UNL1       -0.2974
      3 C           5.1350    0.0670    0.0000 C.3     1  UNL1       -0.0218
      4 C           5.1350   -0.9330    0.0000 C.3     1  UNL1       -0.0140
      5 C           4.2690    0.5670    0.0000 C.3     1  UNL1       -0.0321
      6 C           6.0812    0.3717    0.0000 C.3     1  UNL1        0.0209
      7 C           6.0812   -1.2377    0.0000 C.3     1  UNL1       -0.0455
      8 C           6.6648   -0.4330    0.0000 C.3     1  UNL1       -0.0427
      9 C           3.4030    0.0670    0.0000 C.3     1  UNL1       -0.0196
     10 C           4.2690   -1.4330    0.0000 C.2     1  UNL1       -0.0452
     11 C           4.2690    1.5670    0.0000 C.3     1  UNL1       -0.0435
     12 C           3.4030   -0.9330    0.0000 C.3     1  UNL1        0.0765
     13 C           6.8255    1.0396    0.0000 C.2     1  UNL1        0.1337
     14 C           3.4030    2.0670    0.0000 C.3     1  UNL1       -0.0624
     15 C           4.7690    2.4330    0.0000 C.3     1  UNL1       -0.0624
     16 C           4.2690   -2.4330    0.0000 C.2     1  UNL1       -0.0968
     17 C           7.7760    0.7289    0.0000 C.3     1  UNL1       -0.0058
     18 H           5.2250    0.9122    0.0000 H       1  UNL1        0.0316
     19 H           5.2250   -1.7782    0.0000 H       1  UNL1        0.0349
     20 H           3.7320    0.8770    0.0000 H       1  UNL1        0.0307
     21 H           5.7724    0.9093    0.0000 H       1  UNL1        0.0380
     22 H           5.8302   -1.8046    0.0000 H       1  UNL1        0.0271
     23 H           6.6186   -1.5470    0.0000 H       1  UNL1        0.0271
     24 H           7.1257   -0.8477    0.0000 H       1  UNL1        0.0272
     25 H           7.1257   -0.0183    0.0000 H       1  UNL1        0.0272
     26 H           3.1909    0.6496    0.0000 H       1  UNL1        0.0296
     27 H           2.7924   -0.0407    0.0000 H       1  UNL1        0.0296
     28 H           4.8679    1.4065    0.0000 H       1  UNL1        0.0298
     29 H           3.4030   -1.5530    0.0000 H       1  UNL1        0.0640
     30 H           5.3059    2.1230    0.0000 H       1  UNL1        0.0232
     31 H           5.0790    2.9700    0.0000 H       1  UNL1        0.0232
     32 H           3.7130    2.6039    0.0000 H       1  UNL1        0.0232
     33 H           4.2320    2.7430    0.0000 H       1  UNL1        0.0232
     34 H           2.8660    2.3770    0.0000 H       1  UNL1        0.0232
     35 H           3.0930    1.5300    0.0000 H       1  UNL1        0.0232
     36 H           3.7320   -2.7430    0.0000 H       1  UNL1        0.0535
     37 H           4.8059   -2.7430    0.0000 H       1  UNL1        0.0535
     38 H           2.0000   -1.1230    0.0000 H       1  UNL1        0.2102
     39 H           7.5834    0.1396    0.0000 H       1  UNL1        0.0306
     40 H           8.3654    0.5363    0.0000 H       1  UNL1        0.0306
     41 H           7.9687    1.3182    0.0000 H       1  UNL1        0.0306
@<TRIPOS>BOND
     1    12     1    1
     2     1    38    1
     3     2    13    2
     4     3     4    1
     5     3     5    1
     6     3     6    1
     7     3    18    1
     8     4     7    1
     9     4    10    1
    10     4    19    1
    11     5     9    1
    12     5    11    1
    13     5    20    1
    14     6     8    1
    15     6    13    1
    16     6    21    1
    17     7     8    1
    18     7    22    1
    19     7    23    1
    20     8    24    1
    21     8    25    1
    22     9    12    1
    23     9    26    1
    24     9    27    1
    25    10    12    1
    26    10    16    2
    27    11    14    1
    28    11    15    1
    29    11    28    1
    30    12    29    1
    31    13    17    1
    32    14    32    1
    33    14    34    1
    34    14    35    1
    35    15    30    1
    36    15    31    1
    37    15    33    1
    38    16    36    1
    39    16    37    1
    40    17    39    1
    41    17    40    1
    42    17    41    1
