@<TRIPOS>MOLECULE
IMPHY014226
 56 59 0 0 0
SMALL
GASTEIGER

@<TRIPOS>ATOM
      1 O           5.3747   -0.1042    0.0000 O.3     1  UNL1       -0.4491
      2 O           7.4217    0.9319    0.0000 O.3     1  UNL1       -0.3837
      3 O           5.6127    2.2463    0.0000 O.3     1  UNL1       -0.3843
      4 O           4.6856   -0.6069    0.0000 O.3     1  UNL1       -0.3772
      5 O           5.0808   -1.8595    0.0000 O.3     1  UNL1       -0.3874
      6 O           4.1827    1.3163    0.0000 O.2     1  UNL1       -0.2508
      7 C           5.8037   -0.2436    0.0000 C.3     1  UNL1        0.2029
      8 C           6.3037    1.2952    0.0000 C.3     1  UNL1        0.0429
      9 C           6.6127    0.3442    0.0000 C.3     1  UNL1        0.1198
     10 C           5.3037    1.2952    0.0000 C.3     1  UNL1        0.1146
     11 C           4.9946    0.3442    0.0000 C.3     1  UNL1        0.1610
     12 C           5.8966   -1.2811    0.0000 C.3     1  UNL1        0.1034
     13 C           7.5707   -0.0648    0.0000 C.3     1  UNL1       -0.0191
     14 C           4.4979    1.8774    0.0000 C.3     1  UNL1        0.0016
     15 C           5.8747    1.4346    0.0000 C.3     1  UNL1        0.0558
     16 C           4.0006    0.3467    0.0000 C.2     1  UNL1       -0.0351
     17 C           6.8448   -1.7121    0.0000 C.3     1  UNL1       -0.0137
     18 C           6.6127    2.2463    0.0000 C.3     1  UNL1       -0.0535
     19 C           3.6942    1.2924    0.0000 C.2     1  UNL1       -0.0622
     20 C           7.6875   -1.0998    0.0000 C.3     1  UNL1       -0.0452
     21 C           5.0657    0.8468    0.0000 C.2     1  UNL1        0.3086
     22 C           2.7431    1.6014    0.0000 C.3     1  UNL1       -0.0251
     23 C           3.4114   -0.4613    0.0000 C.3     1  UNL1       -0.0406
     24 C           6.9455   -2.7070    0.0000 C.3     1  UNL1       -0.0599
     25 C           2.5352    2.5796    0.0000 C.3     1  UNL1       -0.0589
     26 C           2.0000    0.9323    0.0000 C.3     1  UNL1       -0.0589
     27 H           5.3336   -1.0213    0.0000 H       1  UNL1        0.0638
     28 H           8.1896   -0.1017    0.0000 H       1  UNL1        0.0294
     29 H           7.7129    0.5387    0.0000 H       1  UNL1        0.0294
     30 H           4.9118    2.3390    0.0000 H       1  UNL1        0.0339
     31 H           4.0824    2.3376    0.0000 H       1  UNL1        0.0339
     32 H           6.1847    1.9715    0.0000 H       1  UNL1        0.0385
     33 H           5.4139    1.8495    0.0000 H       1  UNL1        0.0385
     34 H           6.3412   -2.0736    0.0000 H       1  UNL1        0.0324
     35 H           7.2023    2.0547    0.0000 H       1  UNL1        0.0237
     36 H           6.8043    2.8359    0.0000 H       1  UNL1        0.0237
     37 H           6.0230    2.4379    0.0000 H       1  UNL1        0.0237
     38 H           7.9608   -1.6564    0.0000 H       1  UNL1        0.0270
     39 H           8.2826   -0.9259    0.0000 H       1  UNL1        0.0270
     40 H           7.9881    0.6798    0.0000 H       1  UNL1        0.2104
     41 H           5.1978    2.7070    0.0000 H       1  UNL1        0.2103
     42 H           4.0792   -0.7358    0.0000 H       1  UNL1        0.2109
     43 H           2.8721    0.9950    0.0000 H       1  UNL1        0.0340
     44 H           2.9104   -0.0960    0.0000 H       1  UNL1        0.0275
     45 H           3.0461   -0.9622    0.0000 H       1  UNL1        0.0275
     46 H           3.9124   -0.8266    0.0000 H       1  UNL1        0.0275
     47 H           6.3287   -2.7694    0.0000 H       1  UNL1        0.0233
     48 H           7.0080   -3.3239    0.0000 H       1  UNL1        0.0233
     49 H           7.5624   -2.6446    0.0000 H       1  UNL1        0.0233
     50 H           5.1385   -2.4768    0.0000 H       1  UNL1        0.2100
     51 H           3.1417    2.7085    0.0000 H       1  UNL1        0.0235
     52 H           2.4063    3.1860    0.0000 H       1  UNL1        0.0235
     53 H           1.9288    2.4507    0.0000 H       1  UNL1        0.0235
     54 H           1.5851    1.3931    0.0000 H       1  UNL1        0.0235
     55 H           1.5392    0.5175    0.0000 H       1  UNL1        0.0235
     56 H           2.4149    0.4716    0.0000 H       1  UNL1        0.0235
@<TRIPOS>BOND
     1     7     1    1
     2     1    21    1
     3     9     2    1
     4     2    40    1
     5    10     3    1
     6     3    41    1
     7    11     4    1
     8     4    42    1
     9    12     5    1
    10     5    50    1
    11     6    21    2
    12     7     9    1
    13     7    11    1
    14     7    12    1
    15     8     9    1
    16     8    10    1
    17     8    15    1
    18     8    18    1
    19     9    13    1
    20    10    11    1
    21    10    14    1
    22    11    16    1
    23    12    17    1
    24    12    27    1
    25    13    20    1
    26    13    28    1
    27    13    29    1
    28    14    19    1
    29    14    30    1
    30    14    31    1
    31    15    21    1
    32    15    32    1
    33    15    33    1
    34    16    19    2
    35    16    23    1
    36    17    20    1
    37    17    24    1
    38    17    34    1
    39    18    35    1
    40    18    36    1
    41    18    37    1
    42    19    22    1
    43    20    38    1
    44    20    39    1
    45    22    25    1
    46    22    26    1
    47    22    43    1
    48    23    44    1
    49    23    45    1
    50    23    46    1
    51    24    47    1
    52    24    48    1
    53    24    49    1
    54    25    51    1
    55    25    52    1
    56    25    53    1
    57    26    54    1
    58    26    55    1
    59    26    56    1
