@<TRIPOS>MOLECULE
IMPHY015399
 16 16 0 0 0
SMALL
GASTEIGER

@<TRIPOS>ATOM
      1 O           3.7601   -0.6588    0.0000 O.3     1  UNL1       -0.4514
      2 O           2.0000   -0.3800    0.0000 O.2     1  UNL1       -0.2456
      3 C           4.5691   -0.0710    0.0000 C.3     1  UNL1        0.1269
      4 C           4.2601    0.8800    0.0000 C.2     1  UNL1       -0.0347
      5 C           5.1569   -0.8800    0.0000 C.3     1  UNL1       -0.0214
      6 C           5.5202    0.2380    0.0000 C.3     1  UNL1       -0.0214
      7 C           3.2601    0.8800    0.0000 C.2     1  UNL1        0.0223
      8 C           2.9511   -0.0710    0.0000 C.2     1  UNL1        0.3326
      9 H           4.6245    1.3816    0.0000 H       1  UNL1        0.0613
     10 H           4.6553   -1.2445    0.0000 H       1  UNL1        0.0271
     11 H           5.5213   -1.3816    0.0000 H       1  UNL1        0.0271
     12 H           5.6585   -0.5156    0.0000 H       1  UNL1        0.0271
     13 H           5.7117   -0.3517    0.0000 H       1  UNL1        0.0271
     14 H           6.1098    0.4296    0.0000 H       1  UNL1        0.0271
     15 H           5.3286    0.8277    0.0000 H       1  UNL1        0.0271
     16 H           2.8956    1.3816    0.0000 H       1  UNL1        0.0687
@<TRIPOS>BOND
     1     1     3    1
     2     1     8    1
     3     2     8    2
     4     3     4    1
     5     3     5    1
     6     3     6    1
     7     4     7    2
     8     4     9    1
     9     5    10    1
    10     5    11    1
    11     5    12    1
    12     6    13    1
    13     6    14    1
    14     6    15    1
    15     7     8    1
    16     7    16    1
