@<TRIPOS>MOLECULE
IMPHY008568
 56 58 0 0 0
SMALL
GASTEIGER

@<TRIPOS>ATOM
      1 O           9.8222   -1.0347    0.0000 O.3     1  UNL1       -0.4776
      2 O           8.0622    2.0000    0.0000 O.3     1  UNL1       -0.5053
      3 O           8.0622   -2.0000    0.0000 O.3     1  UNL1       -0.5033
      4 O           6.3301    2.0000    0.0000 O.2     1  UNL1       -0.2872
      5 O           2.8660    2.0000    0.0000 O.3     1  UNL1       -0.5062
      6 C          10.7282   -0.5208    0.0000 C.3     1  UNL1        0.1267
      7 C          11.7282   -0.5247    0.0000 C.3     1  UNL1       -0.0060
      8 C          10.7282    0.5208    0.0000 C.2     1  UNL1       -0.0405
      9 C          11.2249   -1.3888    0.0000 C.3     1  UNL1       -0.0212
     10 C          12.2315    0.3394    0.0000 C.3     1  UNL1       -0.0306
     11 C           8.9282   -0.5000    0.0000 C.ar    1  UNL1        0.1735
     12 C           8.9282    0.5000    0.0000 C.ar    1  UNL1        0.0622
     13 C           9.8222    1.0347    0.0000 C.2     1  UNL1       -0.0477
     14 C           8.0622    1.0000    0.0000 C.ar    1  UNL1        0.1385
     15 C           8.0622   -1.0000    0.0000 C.ar    1  UNL1        0.1600
     16 C          13.2315    0.3356    0.0000 C.2     1  UNL1       -0.0851
     17 C           7.1962    0.5000    0.0000 C.ar    1  UNL1        0.0673
     18 C           7.1962   -0.5000    0.0000 C.ar    1  UNL1       -0.0022
     19 C          13.7349    1.1997    0.0000 C.2     1  UNL1       -0.0796
     20 C           6.3301    1.0000    0.0000 C.2     1  UNL1        0.1897
     21 C          14.7349    1.1958    0.0000 C.3     1  UNL1       -0.0440
     22 C          13.2382    2.0676    0.0000 C.3     1  UNL1       -0.0440
     23 C           5.4641    0.5000    0.0000 C.2     1  UNL1       -0.0136
     24 C           4.5981    1.0000    0.0000 C.2     1  UNL1       -0.0475
     25 C           3.7320    0.5000    0.0000 C.ar    1  UNL1        0.0165
     26 C           2.8660    1.0000    0.0000 C.ar    1  UNL1        0.1240
     27 C           3.7320   -0.5000    0.0000 C.ar    1  UNL1       -0.0511
     28 C           2.0000    0.5000    0.0000 C.ar    1  UNL1       -0.0196
     29 C           2.8660   -1.0000    0.0000 C.ar    1  UNL1       -0.0610
     30 C           2.0000   -0.5000    0.0000 C.ar    1  UNL1       -0.0583
     31 H          11.6182   -1.1348    0.0000 H       1  UNL1        0.0310
     32 H          12.3100   -0.7390    0.0000 H       1  UNL1        0.0310
     33 H          11.2639    0.8329    0.0000 H       1  UNL1        0.0611
     34 H          10.6867   -1.6967    0.0000 H       1  UNL1        0.0271
     35 H          11.5328   -1.9269    0.0000 H       1  UNL1        0.0271
     36 H          11.7630   -1.0808    0.0000 H       1  UNL1        0.0271
     37 H          12.3416    0.9496    0.0000 H       1  UNL1        0.0309
     38 H          11.6498    0.5537    0.0000 H       1  UNL1        0.0309
     39 H           9.8150    1.6546    0.0000 H       1  UNL1        0.0624
     40 H          13.5395   -0.2026    0.0000 H       1  UNL1        0.0571
     41 H           6.6592   -0.8100    0.0000 H       1  UNL1        0.0663
     42 H          14.7325    0.5758    0.0000 H       1  UNL1        0.0274
     43 H          13.7763    2.3755    0.0000 H       1  UNL1        0.0274
     44 H          12.9303    2.6057    0.0000 H       1  UNL1        0.0274
     45 H          12.7001    1.7597    0.0000 H       1  UNL1        0.0274
     46 H          15.3549    1.1934    0.0000 H       1  UNL1        0.0274
     47 H          14.7372    1.8158    0.0000 H       1  UNL1        0.0274
     48 H           8.5991    2.3100    0.0000 H       1  UNL1        0.2922
     49 H           7.5252   -2.3100    0.0000 H       1  UNL1        0.2923
     50 H           5.4641   -0.1200    0.0000 H       1  UNL1        0.0656
     51 H           4.5981    1.6200    0.0000 H       1  UNL1        0.0626
     52 H           4.2690   -0.8100    0.0000 H       1  UNL1        0.0625
     53 H           1.4631    0.8100    0.0000 H       1  UNL1        0.0654
     54 H           2.8660   -1.6200    0.0000 H       1  UNL1        0.0618
     55 H           1.4631   -0.8100    0.0000 H       1  UNL1        0.0619
     56 H           2.3291    2.3100    0.0000 H       1  UNL1        0.2922
@<TRIPOS>BOND
     1     1     6    1
     2     1    11    1
     3     2    14    1
     4     2    48    1
     5     3    15    1
     6     3    49    1
     7     4    20    2
     8     5    26    1
     9     5    56    1
    10     6     7    1
    11     6     8    1
    12     6     9    1
    13     7    10    1
    14     7    31    1
    15     7    32    1
    16     8    13    2
    17     8    33    1
    18     9    34    1
    19     9    35    1
    20     9    36    1
    21    10    16    1
    22    10    37    1
    23    10    38    1
    24    11    12   ar
    25    11    15   ar
    26    12    13    1
    27    12    14   ar
    28    13    39    1
    29    14    17   ar
    30    15    18   ar
    31    16    19    2
    32    16    40    1
    33    17    18   ar
    34    17    20    1
    35    18    41    1
    36    19    21    1
    37    19    22    1
    38    20    23    1
    39    21    42    1
    40    21    46    1
    41    21    47    1
    42    22    43    1
    43    22    44    1
    44    22    45    1
    45    23    24    2
    46    23    50    1
    47    24    25    1
    48    24    51    1
    49    25    26   ar
    50    25    27   ar
    51    26    28   ar
    52    27    29   ar
    53    27    52    1
    54    28    30   ar
    55    28    53    1
    56    29    30   ar
    57    29    54    1
    58    30    55    1
