@<TRIPOS>MOLECULE
IMPHY004757
 91 92 0 0 0
SMALL
GASTEIGER

@<TRIPOS>ATOM
      1 O           9.3701    2.9574    0.0000 O.2     1  UNL1       -0.2948
      2 O          10.7824    1.5856    0.0000 O.2     1  UNL1       -0.5096
      3 O          10.0828   -1.6058    0.0000 O.2     1  UNL1       -0.2907
      4 O           9.2248   -1.6422    0.0000 O.2     1  UNL1       -0.2956
      5 C           7.1206   -0.6518    0.0000 C.3     1  UNL1       -0.0023
      6 C           8.3923    0.1428    0.0000 C.3     1  UNL1        0.1555
      7 C           6.3434   -0.0225    0.0000 C.3     1  UNL1       -0.0292
      8 C           8.1335    1.1087    0.0000 C.3     1  UNL1        0.0912
      9 C           6.7018    0.9111    0.0000 C.3     1  UNL1       -0.0297
     10 C           8.8701    2.0914    0.0000 C.2     1  UNL1        0.1683
     11 C           6.5760   -1.4905    0.0000 C.3     1  UNL1       -0.0422
     12 C           7.5746   -1.5428    0.0000 C.3     1  UNL1       -0.0576
     13 C           9.6133   -0.7229    0.0000 C.2     1  UNL1        0.1837
     14 C           5.3775   -0.2813    0.0000 C.3     1  UNL1       -0.0311
     15 C          10.1667    0.7976    0.0000 C.2     1  UNL1        0.1144
     16 C           8.6511   -0.8231    0.0000 C.2     1  UNL1        0.1572
     17 C           7.8746    2.0747    0.0000 C.3     1  UNL1       -0.0151
     18 C          10.4423   -0.1637    0.0000 C.2     1  UNL1        0.0383
     19 C           5.5773   -1.4382    0.0000 C.3     1  UNL1       -0.0340
     20 C           8.3923   -1.7890    0.0000 C.3     1  UNL1        0.0133
     21 C          11.3820   -0.5057    0.0000 C.3     1  UNL1       -0.0027
     22 C           4.6704    0.4258    0.0000 C.2     1  UNL1       -0.0850
     23 C           6.9087    2.3335    0.0000 C.2     1  UNL1       -0.0839
     24 C           5.0327   -2.2768    0.0000 C.2     1  UNL1       -0.0853
     25 C           9.0994   -2.4962    0.0000 C.3     1  UNL1       -0.0559
     26 C           7.6852   -2.4962    0.0000 C.3     1  UNL1       -0.0559
     27 C           3.7045    0.1670    0.0000 C.2     1  UNL1       -0.0796
     28 C           6.6499    3.2994    0.0000 C.2     1  UNL1       -0.0796
     29 C          12.1481    0.1371    0.0000 C.2     1  UNL1       -0.0808
     30 C           5.4867   -3.1678    0.0000 C.2     1  UNL1       -0.0796
     31 C           2.9974    0.8741    0.0000 C.3     1  UNL1       -0.0440
     32 C           3.4457   -0.7990    0.0000 C.3     1  UNL1       -0.0440
     33 C          13.0878   -0.2049    0.0000 C.2     1  UNL1       -0.0793
     34 C           5.6840    3.5582    0.0000 C.3     1  UNL1       -0.0440
     35 C           7.3570    4.0065    0.0000 C.3     1  UNL1       -0.0440
     36 C           4.9420   -4.0065    0.0000 C.3     1  UNL1       -0.0440
     37 C           6.4853   -3.2202    0.0000 C.3     1  UNL1       -0.0440
     38 C          13.8538    0.4379    0.0000 C.3     1  UNL1       -0.0440
     39 C          13.2614   -1.1897    0.0000 C.3     1  UNL1       -0.0440
     40 H           5.9286    0.4382    0.0000 H       1  UNL1        0.0310
     41 H           6.0940    1.0334    0.0000 H       1  UNL1        0.0282
     42 H           6.7208    1.5308    0.0000 H       1  UNL1        0.0282
     43 H           7.1467   -1.7328    0.0000 H       1  UNL1        0.0274
     44 H           6.4365   -2.0946    0.0000 H       1  UNL1        0.0274
     45 H           8.1270   -1.2614    0.0000 H       1  UNL1        0.0236
     46 H           7.8561   -2.0953    0.0000 H       1  UNL1        0.0236
     47 H           7.0222   -1.8243    0.0000 H       1  UNL1        0.0236
     48 H           5.6396   -0.8432    0.0000 H       1  UNL1        0.0310
     49 H           4.8696   -0.6369    0.0000 H       1  UNL1        0.0310
     50 H           7.9287    2.6923    0.0000 H       1  UNL1        0.0321
     51 H           8.4923    2.1287    0.0000 H       1  UNL1        0.0321
     52 H           5.0066   -1.1959    0.0000 H       1  UNL1        0.0308
     53 H           5.7168   -0.8341    0.0000 H       1  UNL1        0.0308
     54 H           7.8553   -1.4790    0.0000 H       1  UNL1        0.0372
     55 H          11.8570   -0.9042    0.0000 H       1  UNL1        0.0358
     56 H          11.0720   -1.0426    0.0000 H       1  UNL1        0.0358
     57 H           4.8309    1.0246    0.0000 H       1  UNL1        0.0572
     58 H           6.4703    1.8951    0.0000 H       1  UNL1        0.0572
     59 H          11.3963    1.4993    0.0000 H       1  UNL1        0.2917
     60 H           4.4135   -2.2444    0.0000 H       1  UNL1        0.0571
     61 H           8.1236   -2.9346    0.0000 H       1  UNL1        0.0236
     62 H           7.2468   -2.9346    0.0000 H       1  UNL1        0.0236
     63 H           7.2468   -2.0577    0.0000 H       1  UNL1        0.0236
     64 H           9.5378   -2.0577    0.0000 H       1  UNL1        0.0236
     65 H           9.5378   -2.9346    0.0000 H       1  UNL1        0.0236
     66 H           8.6610   -2.9346    0.0000 H       1  UNL1        0.0236
     67 H          12.0404    0.7477    0.0000 H       1  UNL1        0.0575
     68 H           2.5590    0.4357    0.0000 H       1  UNL1        0.0274
     69 H           2.5590    1.3125    0.0000 H       1  UNL1        0.0274
     70 H           3.4358    1.3125    0.0000 H       1  UNL1        0.0274
     71 H           4.0446   -0.9594    0.0000 H       1  UNL1        0.0274
     72 H           3.2852   -1.3978    0.0000 H       1  UNL1        0.0274
     73 H           2.8468   -0.6385    0.0000 H       1  UNL1        0.0274
     74 H           6.9186    4.4449    0.0000 H       1  UNL1        0.0274
     75 H           7.7954    4.4449    0.0000 H       1  UNL1        0.0274
     76 H           7.7954    3.5681    0.0000 H       1  UNL1        0.0274
     77 H           5.5235    2.9594    0.0000 H       1  UNL1        0.0274
     78 H           5.0851    3.7187    0.0000 H       1  UNL1        0.0274
     79 H           5.8444    4.1571    0.0000 H       1  UNL1        0.0274
     80 H           5.4620   -4.3442    0.0000 H       1  UNL1        0.0274
     81 H           4.6044   -4.5265    0.0000 H       1  UNL1        0.0274
     82 H           4.4221   -3.6688    0.0000 H       1  UNL1        0.0274
     83 H           6.5178   -2.6010    0.0000 H       1  UNL1        0.0274
     84 H           7.1045   -3.2526    0.0000 H       1  UNL1        0.0274
     85 H           6.4529   -3.8393    0.0000 H       1  UNL1        0.0274
     86 H          13.8720   -1.0821    0.0000 H       1  UNL1        0.0274
     87 H          13.3691   -1.8003    0.0000 H       1  UNL1        0.0274
     88 H          12.6508   -1.2974    0.0000 H       1  UNL1        0.0274
     89 H          13.4553    0.9128    0.0000 H       1  UNL1        0.0274
     90 H          14.3288    0.8364    0.0000 H       1  UNL1        0.0274
     91 H          14.2523   -0.0371    0.0000 H       1  UNL1        0.0274
@<TRIPOS>BOND
     1     1    10    2
     2     2    15    1
     3     2    59    1
     4     3    13    2
     5     4    16    2
     6     5     6    1
     7     5     7    1
     8     5    11    1
     9     5    12    1
    10     6    10    1
    11     6    13    1
    12     6    16    1
    13     7     9    1
    14     7    14    1
    15     7    40    1
    16     8     9    1
    17     8    10    1
    18     8    15    1
    19     8    17    1
    20     9    41    1
    21     9    42    1
    22    11    19    1
    23    11    43    1
    24    11    44    1
    25    12    45    1
    26    12    46    1
    27    12    47    1
    28    13    18    1
    29    14    22    1
    30    14    48    1
    31    14    49    1
    32    15    18    2
    33    16    20    1
    34    17    23    1
    35    17    50    1
    36    17    51    1
    37    18    21    1
    38    19    24    1
    39    19    52    1
    40    19    53    1
    41    20    25    1
    42    20    26    1
    43    20    54    1
    44    21    29    1
    45    21    55    1
    46    21    56    1
    47    22    27    2
    48    22    57    1
    49    23    28    2
    50    23    58    1
    51    24    30    2
    52    24    60    1
    53    25    64    1
    54    25    65    1
    55    25    66    1
    56    26    61    1
    57    26    62    1
    58    26    63    1
    59    27    31    1
    60    27    32    1
    61    28    34    1
    62    28    35    1
    63    29    33    2
    64    29    67    1
    65    30    36    1
    66    30    37    1
    67    31    68    1
    68    31    69    1
    69    31    70    1
    70    32    71    1
    71    32    72    1
    72    32    73    1
    73    33    38    1
    74    33    39    1
    75    34    77    1
    76    34    78    1
    77    34    79    1
    78    35    74    1
    79    35    75    1
    80    35    76    1
    81    36    80    1
    82    36    81    1
    83    36    82    1
    84    37    83    1
    85    37    84    1
    86    37    85    1
    87    38    89    1
    88    38    90    1
    89    38    91    1
    90    39    86    1
    91    39    87    1
    92    39    88    1
