@<TRIPOS>MOLECULE
IMPHY006091
 87 92 0 0 0
SMALL
GASTEIGER

@<TRIPOS>ATOM
      1 O           9.9828   -0.5544    0.0000 O.2     1  UNL1       -0.2916
      2 O           8.6663    1.5432    0.0000 O.3     1  UNL1       -0.5056
      3 O          13.8625    1.5432    0.0000 O.3     1  UNL1       -0.5064
      4 O          10.3984   -1.4568    0.0000 O.3     1  UNL1       -0.5064
      5 O           6.0682    0.0432    0.0000 O.2     1  UNL1       -0.4539
      6 O          10.2384   -2.7759    0.0000 O.3     1  UNL1       -0.5059
      7 O          15.5945   -1.4568    0.0000 O.3     1  UNL1       -0.5066
      8 O          13.4935   -3.9606    0.0000 O.3     1  UNL1       -0.5066
      9 O           6.0682    3.0432    0.0000 O.2     1  UNL1       -0.2866
     10 O           4.3198    3.0778    0.0000 O.3     1  UNL1       -0.5058
     11 O           2.5381    0.0191    0.0000 O.3     1  UNL1       -0.5065
     12 C          11.2644    0.0432    0.0000 C.3     1  UNL1        0.0399
     13 C          12.1304    0.5432    0.0000 C.3     1  UNL1        0.0019
     14 C          10.3984    0.5432    0.0000 C.3     1  UNL1        0.0198
     15 C          12.1304    1.5432    0.0000 C.3     1  UNL1       -0.0244
     16 C          11.2644    2.0432    0.0000 C.2     1  UNL1       -0.0753
     17 C          10.3984    1.5432    0.0000 C.2     1  UNL1       -0.0767
     18 C          12.9965    0.0432    0.0000 C.ar    1  UNL1       -0.0016
     19 C           9.5323    0.0432    0.0000 C.ar    1  UNL1        0.0436
     20 C          10.9225   -0.8965    0.0000 C.2     1  UNL1        0.1712
     21 C          11.2644    3.0432    0.0000 C.3     1  UNL1       -0.0437
     22 C           8.6663    0.5432    0.0000 C.ar    1  UNL1        0.1347
     23 C          13.8625    0.5432    0.0000 C.ar    1  UNL1        0.1238
     24 C           9.5323   -0.9568    0.0000 C.ar    1  UNL1        0.1241
     25 C          11.5652   -1.6625    0.0000 C.ar    1  UNL1        0.0593
     26 C          12.9965   -0.9568    0.0000 C.ar    1  UNL1       -0.0514
     27 C           7.8003    0.0432    0.0000 C.ar    1  UNL1        0.0596
     28 C           8.6663   -1.4568    0.0000 C.ar    1  UNL1       -0.0190
     29 C          14.7285    0.0432    0.0000 C.ar    1  UNL1        0.0216
     30 C          13.8625   -1.4568    0.0000 C.ar    1  UNL1       -0.0197
     31 C           7.8003   -0.9568    0.0000 C.ar    1  UNL1       -0.0441
     32 C          11.2232   -2.6022    0.0000 C.ar    1  UNL1        0.1308
     33 C          12.5500   -1.4888    0.0000 C.ar    1  UNL1       -0.0443
     34 C          14.7285   -0.9568    0.0000 C.ar    1  UNL1        0.1203
     35 C           6.9343    0.5432    0.0000 C.ar    1  UNL1        0.1462
     36 C          11.8659   -3.3682    0.0000 C.ar    1  UNL1        0.0220
     37 C          13.1928   -2.2549    0.0000 C.ar    1  UNL1       -0.0193
     38 C           6.9343    1.5432    0.0000 C.ar    1  UNL1        0.0467
     39 C          12.8507   -3.1946    0.0000 C.ar    1  UNL1        0.1204
     40 C           7.8003    2.0432    0.0000 C.3     1  UNL1       -0.0021
     41 C           6.0682    2.0432    0.0000 C.ar    1  UNL1        0.2001
     42 C           5.2022    0.5432    0.0000 C.ar    1  UNL1        0.1463
     43 C           5.2022    1.5432    0.0000 C.ar    1  UNL1        0.1058
     44 C           7.8003    3.0432    0.0000 C.2     1  UNL1       -0.0807
     45 C           4.3083    0.0086    0.0000 C.ar    1  UNL1        0.0231
     46 C           4.3083    2.0779    0.0000 C.ar    1  UNL1        0.1347
     47 C           3.4022    0.5224    0.0000 C.ar    1  UNL1        0.1239
     48 C           3.4022    1.5641    0.0000 C.ar    1  UNL1        0.0223
     49 C           8.6663    3.5432    0.0000 C.2     1  UNL1       -0.0793
     50 C           8.6663    4.5432    0.0000 C.3     1  UNL1       -0.0440
     51 C           9.5323    3.0432    0.0000 C.3     1  UNL1       -0.0440
     52 H          11.7394   -0.3553    0.0000 H       1  UNL1        0.0396
     53 H          12.1304   -0.3068    0.0000 H       1  UNL1        0.0360
     54 H           9.6623    0.9682    0.0000 H       1  UNL1        0.0401
     55 H          12.7410    1.4356    0.0000 H       1  UNL1        0.0316
     56 H          12.3425    2.1258    0.0000 H       1  UNL1        0.0316
     57 H           9.8614    1.8532    0.0000 H       1  UNL1        0.0578
     58 H          11.8844    3.0432    0.0000 H       1  UNL1        0.0274
     59 H          11.2644    3.6632    0.0000 H       1  UNL1        0.0274
     60 H          10.6444    3.0432    0.0000 H       1  UNL1        0.0274
     61 H          12.4595   -1.2668    0.0000 H       1  UNL1        0.0623
     62 H           8.6663   -2.0768    0.0000 H       1  UNL1        0.0654
     63 H          15.2654    0.3532    0.0000 H       1  UNL1        0.0691
     64 H          13.8625   -2.0768    0.0000 H       1  UNL1        0.0654
     65 H           7.2634   -1.2668    0.0000 H       1  UNL1        0.0627
     66 H          12.7620   -0.9062    0.0000 H       1  UNL1        0.0627
     67 H           9.2033    1.8532    0.0000 H       1  UNL1        0.2922
     68 H          14.3994    1.8532    0.0000 H       1  UNL1        0.2921
     69 H          10.3984   -2.0768    0.0000 H       1  UNL1        0.2921
     70 H          11.6539   -3.9508    0.0000 H       1  UNL1        0.0691
     71 H          13.8033   -2.1472    0.0000 H       1  UNL1        0.0654
     72 H          10.0264   -3.3585    0.0000 H       1  UNL1        0.2922
     73 H           8.0124    1.4606    0.0000 H       1  UNL1        0.0358
     74 H           8.4109    2.1509    0.0000 H       1  UNL1        0.0358
     75 H          15.5945   -2.0768    0.0000 H       1  UNL1        0.2921
     76 H           7.2634    3.3532    0.0000 H       1  UNL1        0.0575
     77 H           4.3154   -0.6114    0.0000 H       1  UNL1        0.0691
     78 H          13.2815   -4.5432    0.0000 H       1  UNL1        0.2921
     79 H           2.8665    1.8761    0.0000 H       1  UNL1        0.0691
     80 H           3.7865    3.3940    0.0000 H       1  UNL1        0.2922
     81 H           9.2863    4.5432    0.0000 H       1  UNL1        0.0274
     82 H           8.6663    5.1632    0.0000 H       1  UNL1        0.0274
     83 H           8.0463    4.5432    0.0000 H       1  UNL1        0.0274
     84 H           9.2224    2.5063    0.0000 H       1  UNL1        0.0274
     85 H          10.0693    2.7332    0.0000 H       1  UNL1        0.0274
     86 H           9.8424    3.5802    0.0000 H       1  UNL1        0.0274
     87 H           2.0000    0.3270    0.0000 H       1  UNL1        0.2921
@<TRIPOS>BOND
     1     1    20    2
     2     2    22    1
     3     2    67    1
     4     3    23    1
     5     3    68    1
     6     4    24    1
     7     4    69    1
     8     5    35   ar
     9     5    42   ar
    10     6    32    1
    11     6    72    1
    12     7    34    1
    13     7    75    1
    14     8    39    1
    15     8    78    1
    16     9    41    2
    17    10    46    1
    18    10    80    1
    19    11    47    1
    20    11    87    1
    21    12    13    1
    22    12    14    1
    23    12    20    1
    24    12    52    1
    25    13    15    1
    26    13    18    1
    27    13    53    1
    28    14    17    1
    29    14    19    1
    30    14    54    1
    31    15    16    1
    32    15    55    1
    33    15    56    1
    34    16    17    2
    35    16    21    1
    36    17    57    1
    37    18    23   ar
    38    18    26   ar
    39    19    22   ar
    40    19    24   ar
    41    20    25    1
    42    21    58    1
    43    21    59    1
    44    21    60    1
    45    22    27   ar
    46    23    29   ar
    47    24    28   ar
    48    25    32   ar
    49    25    33   ar
    50    26    30   ar
    51    26    61    1
    52    27    31   ar
    53    27    35    1
    54    28    31   ar
    55    28    62    1
    56    29    34   ar
    57    29    63    1
    58    30    34   ar
    59    30    64    1
    60    31    65    1
    61    32    36   ar
    62    33    37   ar
    63    33    66    1
    64    35    38   ar
    65    36    39   ar
    66    36    70    1
    67    37    39   ar
    68    37    71    1
    69    38    40    1
    70    38    41   ar
    71    40    44    1
    72    40    73    1
    73    40    74    1
    74    41    43   ar
    75    42    43   ar
    76    42    45   ar
    77    43    46   ar
    78    44    49    2
    79    44    76    1
    80    45    47   ar
    81    45    77    1
    82    46    48   ar
    83    47    48   ar
    84    48    79    1
    85    49    50    1
    86    49    51    1
    87    50    81    1
    88    50    82    1
    89    50    83    1
    90    51    84    1
    91    51    85    1
    92    51    86    1
