@<TRIPOS>MOLECULE
IMPHY014918
 66 68 0 0 0
SMALL
GASTEIGER

@<TRIPOS>ATOM
      1 O           6.0010    1.0000    0.0000 O.3     1  UNL1       -0.3405
      2 O           4.2690   -1.0000    0.0000 O.3     1  UNL1       -0.3401
      3 O           7.7331    1.0000    0.0000 O.3     1  UNL1       -0.3401
      4 O           5.1350   -2.5000    0.0000 O.3     1  UNL1       -0.3405
      5 O           6.8671    3.5000    0.0000 O.3     1  UNL1       -0.3407
      6 O           6.0010   -2.0000    0.0000 O.3     1  UNL1       -0.3864
      7 O           7.7331   -1.0000    0.0000 O.3     1  UNL1       -0.3841
      8 O           9.4651    2.0000    0.0000 O.3     1  UNL1       -0.3864
      9 O           2.5369   -2.0000    0.0000 O.3     1  UNL1       -0.3841
     10 O           2.5369   -4.0000    0.0000 O.3     1  UNL1       -0.3864
     11 O           4.2690   -5.0000    0.0000 O.3     1  UNL1       -0.3865
     12 O           9.4651    4.0000    0.0000 O.3     1  UNL1       -0.3841
     13 O           4.2690    2.0000    0.0000 O.3     1  UNL1       -0.3924
     14 O           7.7331    5.0000    0.0000 O.3     1  UNL1       -0.3649
     15 O           5.1350    2.5000    0.0000 O.3     1  UNL1       -0.3924
     16 O           6.8671   -3.5000    0.0000 O.3     1  UNL1       -0.3924
     17 C           5.1350   -0.5000    0.0000 C.3     1  UNL1        0.1184
     18 C           6.0010   -1.0000    0.0000 C.3     1  UNL1        0.1144
     19 C           6.8671   -0.5000    0.0000 C.3     1  UNL1        0.1341
     20 C           5.1350    0.5000    0.0000 C.3     1  UNL1        0.1134
     21 C           6.8671    0.5000    0.0000 C.3     1  UNL1        0.1884
     22 C           7.7331    2.0000    0.0000 C.3     1  UNL1        0.1184
     23 C           4.2690   -2.0000    0.0000 C.3     1  UNL1        0.1884
     24 C           8.5991    2.5000    0.0000 C.3     1  UNL1        0.1144
     25 C           6.8671    2.5000    0.0000 C.3     1  UNL1        0.1134
     26 C           3.4030   -2.5000    0.0000 C.3     1  UNL1        0.1341
     27 C           3.4030   -3.5000    0.0000 C.3     1  UNL1        0.1141
     28 C           4.2690   -4.0000    0.0000 C.3     1  UNL1        0.1119
     29 C           8.5991    3.5000    0.0000 C.3     1  UNL1        0.1339
     30 C           5.1350   -3.5000    0.0000 C.3     1  UNL1        0.1130
     31 C           4.2690    1.0000    0.0000 C.3     1  UNL1        0.0730
     32 C           7.7331    4.0000    0.0000 C.3     1  UNL1        0.1854
     33 C           6.0010    2.0000    0.0000 C.3     1  UNL1        0.0730
     34 C           6.0010   -4.0000    0.0000 C.3     1  UNL1        0.0730
     35 H           5.1350   -1.1200    0.0000 H       1  UNL1        0.0651
     36 H           5.4641   -1.3100    0.0000 H       1  UNL1        0.0648
     37 H           6.8671   -1.1200    0.0000 H       1  UNL1        0.0671
     38 H           5.1350    1.1200    0.0000 H       1  UNL1        0.0647
     39 H           7.4040    0.1900    0.0000 H       1  UNL1        0.0938
     40 H           7.1962    1.6900    0.0000 H       1  UNL1        0.0651
     41 H           3.7320   -1.6900    0.0000 H       1  UNL1        0.0938
     42 H           8.5991    1.8800    0.0000 H       1  UNL1        0.0648
     43 H           6.3301    2.8100    0.0000 H       1  UNL1        0.0647
     44 H           3.4030   -1.8800    0.0000 H       1  UNL1        0.0671
     45 H           3.4030   -4.1200    0.0000 H       1  UNL1        0.0648
     46 H           4.8059   -4.3100    0.0000 H       1  UNL1        0.0647
     47 H           8.5991    4.1200    0.0000 H       1  UNL1        0.0671
     48 H           5.6720   -3.1900    0.0000 H       1  UNL1        0.0647
     49 H           3.6584    1.1077    0.0000 H       1  UNL1        0.0584
     50 H           4.0569    0.4174    0.0000 H       1  UNL1        0.0584
     51 H           7.1962    4.3100    0.0000 H       1  UNL1        0.0935
     52 H           5.6025    1.5250    0.0000 H       1  UNL1        0.0584
     53 H           6.3996    1.5250    0.0000 H       1  UNL1        0.0584
     54 H           6.5380   -2.3100    0.0000 H       1  UNL1        0.2100
     55 H           8.2700   -0.6900    0.0000 H       1  UNL1        0.2101
     56 H           5.6025   -4.4750    0.0000 H       1  UNL1        0.0584
     57 H           6.3996   -4.4750    0.0000 H       1  UNL1        0.0584
     58 H          10.0021    2.3100    0.0000 H       1  UNL1        0.2100
     59 H           2.0000   -2.3100    0.0000 H       1  UNL1        0.2101
     60 H           2.5369   -4.6200    0.0000 H       1  UNL1        0.2100
     61 H           4.8059   -5.3100    0.0000 H       1  UNL1        0.2100
     62 H           9.4651    4.6200    0.0000 H       1  UNL1        0.2101
     63 H           3.7320    2.3100    0.0000 H       1  UNL1        0.2095
     64 H           7.1962    5.3100    0.0000 H       1  UNL1        0.2126
     65 H           5.1350    3.1200    0.0000 H       1  UNL1        0.2095
     66 H           7.4040   -3.8100    0.0000 H       1  UNL1        0.2095
@<TRIPOS>BOND
     1     1    20    1
     2     1    21    1
     3    17     2    1
     4    23     2    1
     5    21     3    1
     6    22     3    1
     7     4    23    1
     8     4    30    1
     9     5    25    1
    10     5    32    1
    11    18     6    1
    12     6    54    1
    13    19     7    1
    14     7    55    1
    15    24     8    1
    16     8    58    1
    17    26     9    1
    18     9    59    1
    19    27    10    1
    20    10    60    1
    21    28    11    1
    22    11    61    1
    23    29    12    1
    24    12    62    1
    25    13    31    1
    26    13    63    1
    27    32    14    1
    28    14    64    1
    29    15    33    1
    30    15    65    1
    31    16    34    1
    32    16    66    1
    33    17    18    1
    34    17    20    1
    35    17    35    1
    36    18    19    1
    37    18    36    1
    38    19    21    1
    39    19    37    1
    40    20    31    1
    41    20    38    1
    42    21    39    1
    43    22    24    1
    44    22    25    1
    45    22    40    1
    46    23    26    1
    47    23    41    1
    48    24    29    1
    49    24    42    1
    50    25    33    1
    51    25    43    1
    52    26    27    1
    53    26    44    1
    54    27    28    1
    55    27    45    1
    56    28    30    1
    57    28    46    1
    58    29    32    1
    59    29    47    1
    60    30    34    1
    61    30    48    1
    62    31    49    1
    63    31    50    1
    64    32    51    1
    65    33    52    1
    66    33    53    1
    67    34    56    1
    68    34    57    1
