@<TRIPOS>MOLECULE
IMPHY015014
 77 82 0 0 0
SMALL
GASTEIGER

@<TRIPOS>ATOM
      1 O           8.4638    1.5030    0.0000 O.3     1  UNL1       -0.3549
      2 O           7.0539   -0.2643    0.0000 O.3     1  UNL1       -0.4760
      3 O          11.0516   -0.0322    0.0000 O.2     1  UNL1       -0.2935
      4 O           7.0539   -3.0266    0.0000 O.2     1  UNL1       -0.2866
      5 O           3.9040   -0.1424    0.0000 O.3     1  UNL1       -0.4811
      6 O           5.5276   -3.0266    0.0000 O.3     1  UNL1       -0.5052
      7 O           9.2432    3.2445    0.0000 O.3     1  UNL1       -0.4774
      8 O           9.1634    1.5143    0.0000 O.2     1  UNL1       -0.2455
      9 C           7.8170   -0.7049    0.0000 C.3     1  UNL1        0.1800
     10 C           8.5801   -0.2643    0.0000 C.3     1  UNL1        0.0360
     11 C           8.6008    0.4995    0.0000 C.3     1  UNL1        0.1753
     12 C           9.2275    0.7540    0.0000 C.3     1  UNL1        0.0723
     13 C           9.3433   -0.7049    0.0000 C.3     1  UNL1       -0.0304
     14 C           9.3433   -1.5860    0.0000 C.3     1  UNL1        0.0399
     15 C           7.8170   -1.5860    0.0000 C.2     1  UNL1        0.0435
     16 C          10.0891   -0.3034    0.0000 C.2     1  UNL1        0.1762
     17 C           8.5801   -2.0266    0.0000 C.2     1  UNL1       -0.0630
     18 C           7.6251    0.7183    0.0000 C.3     1  UNL1        0.0064
     19 C           9.9641    1.4303    0.0000 C.3     1  UNL1       -0.0356
     20 C          10.2274    0.7637    0.0000 C.3     1  UNL1       -0.0356
     21 C           7.0539   -2.0266    0.0000 C.2     1  UNL1        0.1999
     22 C           6.2907   -0.7049    0.0000 C.ar    1  UNL1        0.1433
     23 C           6.2907   -1.5860    0.0000 C.ar    1  UNL1        0.1061
     24 C           7.1655    1.6064    0.0000 C.2     1  UNL1       -0.0710
     25 C           5.5276   -0.2643    0.0000 C.ar    1  UNL1        0.0412
     26 C           5.5276   -2.0266    0.0000 C.ar    1  UNL1        0.1418
     27 C           7.7049    2.4485    0.0000 C.2     1  UNL1        0.0295
     28 C           4.7644   -0.7049    0.0000 C.ar    1  UNL1        0.1393
     29 C           4.7644   -1.5860    0.0000 C.ar    1  UNL1        0.0591
     30 C           5.5276    0.7357    0.0000 C.3     1  UNL1       -0.0023
     31 C           7.2453    3.3366    0.0000 C.3     1  UNL1       -0.0332
     32 C           3.9040   -2.1485    0.0000 C.2     1  UNL1       -0.0478
     33 C           8.7038    2.4024    0.0000 C.2     1  UNL1        0.3322
     34 C           2.9999   -0.6315    0.0000 C.3     1  UNL1        0.1235
     35 C           4.6616    1.2357    0.0000 C.2     1  UNL1       -0.0807
     36 C           2.9999   -1.6594    0.0000 C.2     1  UNL1       -0.0408
     37 C           2.0000   -0.6176    0.0000 C.3     1  UNL1       -0.0215
     38 C           2.5120    0.2414    0.0000 C.3     1  UNL1       -0.0215
     39 C           4.6615    2.2357    0.0000 C.2     1  UNL1       -0.0793
     40 C           3.7955    2.7357    0.0000 C.3     1  UNL1       -0.0440
     41 C           5.5276    2.7357    0.0000 C.3     1  UNL1       -0.0440
     42 H           9.3479    0.1004    0.0000 H       1  UNL1        0.0372
     43 H           9.9538   -0.8125    0.0000 H       1  UNL1        0.0280
     44 H           9.5553   -0.1222    0.0000 H       1  UNL1        0.0280
     45 H           9.9434   -2.1880    0.0000 H       1  UNL1        0.0421
     46 H           8.5801   -2.6466    0.0000 H       1  UNL1        0.0584
     47 H           7.0236    0.5680    0.0000 H       1  UNL1        0.0341
     48 H           7.6326    0.0983    0.0000 H       1  UNL1        0.0341
     49 H          10.3834    0.9736    0.0000 H       1  UNL1        0.0257
     50 H          10.4208    1.8496    0.0000 H       1  UNL1        0.0257
     51 H           9.5448    1.8870    0.0000 H       1  UNL1        0.0257
     52 H          10.2334    0.1437    0.0000 H       1  UNL1        0.0257
     53 H          10.8474    0.7697    0.0000 H       1  UNL1        0.0257
     54 H          10.2214    1.3837    0.0000 H       1  UNL1        0.0257
     55 H           6.5462    1.6350    0.0000 H       1  UNL1        0.0578
     56 H           6.1382    0.6281    0.0000 H       1  UNL1        0.0358
     57 H           5.7396    1.3184    0.0000 H       1  UNL1        0.0358
     58 H           7.7960    3.6216    0.0000 H       1  UNL1        0.0280
     59 H           6.9604    3.8873    0.0000 H       1  UNL1        0.0280
     60 H           6.6947    3.0517    0.0000 H       1  UNL1        0.0280
     61 H           3.9298   -2.7680    0.0000 H       1  UNL1        0.0624
     62 H           4.9906   -3.3366    0.0000 H       1  UNL1        0.2922
     63 H           4.1246    0.9257    0.0000 H       1  UNL1        0.0575
     64 H           2.4673   -1.9768    0.0000 H       1  UNL1        0.0611
     65 H           2.0086    0.0023    0.0000 H       1  UNL1        0.0271
     66 H           1.3801   -0.6090    0.0000 H       1  UNL1        0.0271
     67 H           1.9914   -1.2376    0.0000 H       1  UNL1        0.0271
     68 H           3.0531    0.5439    0.0000 H       1  UNL1        0.0271
     69 H           2.2094    0.7826    0.0000 H       1  UNL1        0.0271
     70 H           1.9708   -0.0611    0.0000 H       1  UNL1        0.0271
     71 H           9.8625    3.2159    0.0000 H       1  UNL1        0.2954
     72 H           4.1055    3.2727    0.0000 H       1  UNL1        0.0274
     73 H           3.2586    3.0457    0.0000 H       1  UNL1        0.0274
     74 H           3.4855    2.1988    0.0000 H       1  UNL1        0.0274
     75 H           5.8376    2.1988    0.0000 H       1  UNL1        0.0274
     76 H           6.0645    3.0458    0.0000 H       1  UNL1        0.0274
     77 H           5.2176    3.2727    0.0000 H       1  UNL1        0.0274
@<TRIPOS>BOND
     1     1    11    1
     2     1    12    1
     3     9     2    1
     4     2    22    1
     5     3    16    2
     6     4    21    2
     7     5    28    1
     8     5    34    1
     9     6    26    1
    10     6    62    1
    11     7    33    1
    12     7    71    1
    13     8    33    2
    14     9    10    1
    15     9    11    1
    16     9    15    1
    17    10    12    1
    18    10    13    1
    19    10    42    1
    20    11    16    1
    21    11    18    1
    22    12    19    1
    23    12    20    1
    24    13    14    1
    25    13    43    1
    26    13    44    1
    27    14    16    1
    28    14    17    1
    29    14    45    1
    30    15    17    2
    31    15    21    1
    32    17    46    1
    33    18    24    1
    34    18    47    1
    35    18    48    1
    36    19    49    1
    37    19    50    1
    38    19    51    1
    39    20    52    1
    40    20    53    1
    41    20    54    1
    42    21    23    1
    43    22    23   ar
    44    22    25   ar
    45    23    26   ar
    46    24    27    2
    47    24    55    1
    48    25    28   ar
    49    25    30    1
    50    26    29   ar
    51    27    31    1
    52    27    33    1
    53    28    29   ar
    54    29    32    1
    55    30    35    1
    56    30    56    1
    57    30    57    1
    58    31    58    1
    59    31    59    1
    60    31    60    1
    61    32    36    2
    62    32    61    1
    63    34    36    1
    64    34    37    1
    65    34    38    1
    66    35    39    2
    67    35    63    1
    68    36    64    1
    69    37    65    1
    70    37    66    1
    71    37    67    1
    72    38    68    1
    73    38    69    1
    74    38    70    1
    75    39    40    1
    76    39    41    1
    77    40    72    1
    78    40    73    1
    79    40    74    1
    80    41    75    1
    81    41    76    1
    82    41    77    1
