@<TRIPOS>MOLECULE
IMPHY000275
 42 42 0 0 0
SMALL
GASTEIGER

@<TRIPOS>ATOM
      1 O           2.4824    0.5115    0.0000 O.3     1  UNL1       -0.3884
      2 O           3.4483    5.1164    0.0000 O.3     1  UNL1       -0.4795
      3 O           4.6730    3.8916    0.0000 O.2     1  UNL1       -0.2492
      4 O           5.8284   -0.3851    0.0000 O.3     1  UNL1       -0.4795
      5 OXT         5.3801    1.2879    0.0000 O.2     1  UNL1       -0.2491
      6 O           6.0179   -3.0240    0.0000 O.3     1  UNL1       -0.3806
      7 O           5.5003   -4.9559    0.0000 O.3     1  UNL1       -0.4788
      8 O           3.8272   -4.5076    0.0000 O.2     1  UNL1       -0.2481
      9 N           3.0000    2.4433    0.0000 N.3     1  UNL1       -0.2874
     10 N           3.8966   -0.9027    0.0000 N.3     1  UNL1       -0.3019
     11 C           3.0000    3.4433    0.0000 C.3     1  UNL1        0.1094
     12 C           2.0000    3.4433    0.0000 C.3     1  UNL1       -0.0141
     13 C           2.0000    2.4433    0.0000 C.3     1  UNL1        0.0017
     14 C           3.7071    1.7362    0.0000 C.3     1  UNL1        0.0277
     15 C           3.4483    0.7703    0.0000 C.3     1  UNL1        0.0935
     16 CA          4.1554    0.0632    0.0000 C.3     1  UNL1        0.1330
     17 C           3.7071    4.1504    0.0000 C.2     1  UNL1        0.3222
     18 C           4.6037   -1.6098    0.0000 C.3     1  UNL1       -0.0004
     19 C           5.1213    0.3220    0.0000 C.2     1  UNL1        0.3245
     20 C           4.3449   -2.5758    0.0000 C.3     1  UNL1       -0.0038
     21 C           5.0520   -3.2829    0.0000 C.3     1  UNL1        0.1525
     22 C           4.7932   -4.2488    0.0000 C.2     1  UNL1        0.3337
     23 H           3.5728    3.2061    0.0000 H       1  UNL1        0.0579
     24 H           2.0000    4.0633    0.0000 H       1  UNL1        0.0298
     25 H           1.3800    3.4433    0.0000 H       1  UNL1        0.0298
     26 H           1.3800    2.4433    0.0000 H       1  UNL1        0.0427
     27 H           2.0000    1.8233    0.0000 H       1  UNL1        0.0427
     28 H           4.2690    1.4742    0.0000 H       1  UNL1        0.0453
     29 H           4.0627    2.2441    0.0000 H       1  UNL1        0.0453
     30 H           3.2878    0.1714    0.0000 H       1  UNL1        0.0627
     31 HA          4.5938   -0.3752    0.0000 H       1  UNL1        0.0603
     32 H           3.2977   -1.0632    0.0000 H       1  UNL1        0.1228
     33 H           5.1656   -1.8719    0.0000 H       1  UNL1        0.0425
     34 H           4.9593   -1.1020    0.0000 H       1  UNL1        0.0425
     35 H           2.3219   -0.0874    0.0000 H       1  UNL1        0.2099
     36 H           3.7830   -2.3137    0.0000 H       1  UNL1        0.0308
     37 H           3.9892   -3.0836    0.0000 H       1  UNL1        0.0308
     38 H           3.8867    5.5548    0.0000 H       1  UNL1        0.2951
     39 H           5.4904   -3.7213    0.0000 H       1  UNL1        0.0710
     40 H           6.4273   -0.2246    0.0000 H       1  UNL1        0.2951
     41 H           6.4563   -3.4625    0.0000 H       1  UNL1        0.2105
     42 H           5.3398   -5.5548    0.0000 H       1  UNL1        0.2951
@<TRIPOS>BOND
     1    15     1    1
     2     1    35    1
     3     2    17    1
     4     2    38    1
     5     3    17    2
     6     4    19    1
     7     4    40    1
     8     5    19    2
     9    21     6    1
    10     6    41    1
    11     7    22    1
    12     7    42    1
    13     8    22    2
    14     9    11    1
    15     9    13    1
    16     9    14    1
    17    16    10    1
    18    10    18    1
    19    10    32    1
    20    11    12    1
    21    11    17    1
    22    11    23    1
    23    12    13    1
    24    12    24    1
    25    12    25    1
    26    13    26    1
    27    13    27    1
    28    14    15    1
    29    14    28    1
    30    14    29    1
    31    15    16    1
    32    15    30    1
    33    16    19    1
    34    16    31    1
    35    18    20    1
    36    18    33    1
    37    18    34    1
    38    20    21    1
    39    20    36    1
    40    20    37    1
    41    21    22    1
    42    21    39    1
