@<TRIPOS>MOLECULE
IMPHY000157
 51 51 0 0 0
SMALL
GASTEIGER

@<TRIPOS>ATOM
      1 O           3.7601   -6.7984    0.0000 O.3     1  UNL1       -0.4542
      2 O           5.5202   -6.5196    0.0000 O.2     1  UNL1       -0.2453
      3 O           5.5274    6.7984    0.0000 O.2     1  UNL1       -0.3010
      4 C           4.8032   -0.0919    0.0000 C.3     1  UNL1       -0.0531
      5 C           5.2100   -1.0054    0.0000 C.3     1  UNL1       -0.0531
      6 C           5.3910    0.7172    0.0000 C.3     1  UNL1       -0.0531
      7 C           4.6222   -1.8144    0.0000 C.3     1  UNL1       -0.0530
      8 C           4.9843    1.6307    0.0000 C.3     1  UNL1       -0.0531
      9 C           5.0289   -2.7280    0.0000 C.3     1  UNL1       -0.0528
     10 C           5.5720    2.4397    0.0000 C.3     1  UNL1       -0.0530
     11 C           4.4411   -3.5370    0.0000 C.3     1  UNL1       -0.0488
     12 C           5.1653    3.3533    0.0000 C.3     1  UNL1       -0.0527
     13 C           4.8479   -4.4505    0.0000 C.3     1  UNL1       -0.0211
     14 C           5.7531    4.1623    0.0000 C.3     1  UNL1       -0.0466
     15 C           4.2601   -5.2596    0.0000 C.2     1  UNL1        0.0361
     16 C           2.9511   -6.2106    0.0000 C.3     1  UNL1        0.1195
     17 C           3.2601   -5.2596    0.0000 C.2     1  UNL1       -0.0343
     18 C           5.3464    5.0758    0.0000 C.3     1  UNL1        0.0028
     19 C           4.5691   -6.2106    0.0000 C.2     1  UNL1        0.3355
     20 C           2.0000   -6.5196    0.0000 C.3     1  UNL1       -0.0240
     21 C           5.9342    5.8848    0.0000 C.2     1  UNL1        0.1203
     22 H           4.3725    0.3541    0.0000 H       1  UNL1        0.0265
     23 H           4.2892   -0.4386    0.0000 H       1  UNL1        0.0265
     24 H           5.6406   -1.4514    0.0000 H       1  UNL1        0.0265
     25 H           5.7240   -0.6587    0.0000 H       1  UNL1        0.0265
     26 H           5.8217    0.2712    0.0000 H       1  UNL1        0.0265
     27 H           5.9050    1.0639    0.0000 H       1  UNL1        0.0265
     28 H           4.1915   -1.3684    0.0000 H       1  UNL1        0.0265
     29 H           4.1082   -2.1611    0.0000 H       1  UNL1        0.0265
     30 H           4.5536    2.0767    0.0000 H       1  UNL1        0.0265
     31 H           4.4703    1.2840    0.0000 H       1  UNL1        0.0265
     32 H           5.4596   -3.1740    0.0000 H       1  UNL1        0.0265
     33 H           5.5429   -2.3813    0.0000 H       1  UNL1        0.0265
     34 H           6.0027    1.9937    0.0000 H       1  UNL1        0.0265
     35 H           6.0861    2.7864    0.0000 H       1  UNL1        0.0265
     36 H           4.0104   -3.0910    0.0000 H       1  UNL1        0.0268
     37 H           3.9271   -3.8837    0.0000 H       1  UNL1        0.0268
     38 H           4.7346    3.7993    0.0000 H       1  UNL1        0.0265
     39 H           4.6513    3.0066    0.0000 H       1  UNL1        0.0265
     40 H           5.2786   -4.8965    0.0000 H       1  UNL1        0.0315
     41 H           5.3619   -4.1038    0.0000 H       1  UNL1        0.0315
     42 H           6.1838    3.7163    0.0000 H       1  UNL1        0.0269
     43 H           6.2671    4.5090    0.0000 H       1  UNL1        0.0269
     44 H           2.8541   -6.8230    0.0000 H       1  UNL1        0.0777
     45 H           2.8956   -4.7580    0.0000 H       1  UNL1        0.0613
     46 H           4.9157    5.5218    0.0000 H       1  UNL1        0.0339
     47 H           4.8324    4.7291    0.0000 H       1  UNL1        0.0339
     48 H           1.8084   -5.9300    0.0000 H       1  UNL1        0.0268
     49 H           1.4103   -6.7112    0.0000 H       1  UNL1        0.0268
     50 H           2.1916   -7.1093    0.0000 H       1  UNL1        0.0268
     51 H           6.5508    5.8200    0.0000 H       1  UNL1        0.1026
@<TRIPOS>BOND
     1     1    16    1
     2     1    19    1
     3     2    19    2
     4     3    21    2
     5     4     5    1
     6     4     6    1
     7     4    22    1
     8     4    23    1
     9     5     7    1
    10     5    24    1
    11     5    25    1
    12     6     8    1
    13     6    26    1
    14     6    27    1
    15     7     9    1
    16     7    28    1
    17     7    29    1
    18     8    10    1
    19     8    30    1
    20     8    31    1
    21     9    11    1
    22     9    32    1
    23     9    33    1
    24    10    12    1
    25    10    34    1
    26    10    35    1
    27    11    13    1
    28    11    36    1
    29    11    37    1
    30    12    14    1
    31    12    38    1
    32    12    39    1
    33    13    15    1
    34    13    40    1
    35    13    41    1
    36    14    18    1
    37    14    42    1
    38    14    43    1
    39    15    17    2
    40    15    19    1
    41    16    17    1
    42    16    20    1
    43    16    44    1
    44    17    45    1
    45    18    21    1
    46    18    46    1
    47    18    47    1
    48    20    48    1
    49    20    49    1
    50    20    50    1
    51    21    51    1
