@<TRIPOS>MOLECULE
IMPHY003470
 67 71 0 0 0
SMALL
GASTEIGER

@<TRIPOS>ATOM
      1 O           5.9860    1.3036    0.0000 O.3     1  UNL1       -0.3375
      2 O           6.8680   -1.2379    0.0000 O.3     1  UNL1       -0.4524
      3 O           8.6540    1.8072    0.0000 O.3     1  UNL1       -0.4500
      4 O           8.6382   -0.2410    0.0000 O.3     1  UNL1       -0.3842
      5 O           6.8802    2.8314    0.0000 O.3     1  UNL1       -0.3641
      6 O           4.8772   -1.2038    0.0000 O.3     1  UNL1       -0.4584
      7 O           5.8477   -2.9182    0.0000 O.2     1  UNL1       -0.2449
      8 O           7.7938    3.3105    0.0000 O.2     1  UNL1       -0.2449
      9 O           5.8772   -1.2038    0.0000 O.2     1  UNL1       -0.2449
     10 O           6.3741   -5.5721    0.0000 O.3     1  UNL1       -0.5028
     11 O           5.3803   -5.5721    0.0000 O.3     1  UNL1       -0.5028
     12 O           9.4464   -3.8140    0.0000 O.3     1  UNL1       -0.5032
     13 O           8.4223   -5.5879    0.0000 O.3     1  UNL1       -0.5009
     14 O           3.3321   -5.5879    0.0000 O.3     1  UNL1       -0.5009
     15 O           2.3079   -3.8140    0.0000 O.3     1  UNL1       -0.5032
     16 O          10.4015    5.8005    0.0000 O.3     1  UNL1       -0.5032
     17 O          12.1220    2.7938    0.0000 O.3     1  UNL1       -0.5032
     18 O          12.1297    4.7938    0.0000 O.3     1  UNL1       -0.5009
     19 C           6.8680   -0.2379    0.0000 C.3     1  UNL1        0.1619
     20 C           7.7780    0.2690    0.0000 C.3     1  UNL1        0.1362
     21 C           6.0020    0.2621    0.0000 C.3     1  UNL1        0.1351
     22 C           7.7861    1.3106    0.0000 C.3     1  UNL1        0.1828
     23 C           6.8840    1.8314    0.0000 C.3     1  UNL1        0.1970
     24 C           5.1360   -0.2379    0.0000 C.3     1  UNL1        0.1225
     25 C           6.3772   -2.0699    0.0000 C.2     1  UNL1        0.3404
     26 C           6.8772   -2.9359    0.0000 C.ar    1  UNL1        0.0740
     27 C           8.6579    2.8072    0.0000 C.2     1  UNL1        0.3399
     28 C           6.3772   -3.8019    0.0000 C.ar    1  UNL1        0.0458
     29 C           5.3772   -2.0699    0.0000 C.2     1  UNL1        0.3401
     30 C           5.3772   -3.8019    0.0000 C.ar    1  UNL1        0.0458
     31 C           4.8772   -2.9359    0.0000 C.ar    1  UNL1        0.0740
     32 C           9.5258    3.3039    0.0000 C.ar    1  UNL1        0.0661
     33 C           7.9187   -2.9198    0.0000 C.ar    1  UNL1       -0.0017
     34 C           6.8840   -4.7119    0.0000 C.ar    1  UNL1        0.1708
     35 C           4.8703   -4.7119    0.0000 C.ar    1  UNL1        0.1708
     36 C           3.8357   -2.9198    0.0000 C.ar    1  UNL1       -0.0017
     37 C           8.4464   -3.8178    0.0000 C.ar    1  UNL1        0.1628
     38 C           7.9256   -4.7199    0.0000 C.ar    1  UNL1        0.2012
     39 C           3.8287   -4.7199    0.0000 C.ar    1  UNL1        0.2012
     40 C           3.3079   -3.8178    0.0000 C.ar    1  UNL1        0.1628
     41 C          10.3899    2.8005    0.0000 C.ar    1  UNL1       -0.0023
     42 C           9.5297    4.3038    0.0000 C.ar    1  UNL1       -0.0023
     43 C          10.3976    4.8005    0.0000 C.ar    1  UNL1        0.1628
     44 C          11.2579    3.2972    0.0000 C.ar    1  UNL1        0.1628
     45 C          11.2617    4.2972    0.0000 C.ar    1  UNL1        0.2006
     46 H           7.4026   -0.5520    0.0000 H       1  UNL1        0.0789
     47 H           7.7697   -0.3510    0.0000 H       1  UNL1        0.0670
     48 H           5.4627    0.5680    0.0000 H       1  UNL1        0.0669
     49 H           7.7873    1.9306    0.0000 H       1  UNL1        0.0813
     50 H           7.4203    2.1424    0.0000 H       1  UNL1        0.0947
     51 H           4.9755    0.3610    0.0000 H       1  UNL1        0.0725
     52 H           4.5160   -0.2379    0.0000 H       1  UNL1        0.0725
     53 H           9.1787    0.0627    0.0000 H       1  UNL1        0.2101
     54 H           6.3420    3.1393    0.0000 H       1  UNL1        0.2126
     55 H           8.2225   -2.3793    0.0000 H       1  UNL1        0.0664
     56 H           3.5319   -2.3793    0.0000 H       1  UNL1        0.0664
     57 H          10.3875    2.1805    0.0000 H       1  UNL1        0.0663
     58 H           8.9940    4.6159    0.0000 H       1  UNL1        0.0663
     59 H           6.6778   -6.1126    0.0000 H       1  UNL1        0.2923
     60 H           5.0766   -6.1126    0.0000 H       1  UNL1        0.2923
     61 H           9.7544   -3.2759    0.0000 H       1  UNL1        0.2923
     62 H           9.0423   -5.5903    0.0000 H       1  UNL1        0.2924
     63 H           2.7121   -5.5903    0.0000 H       1  UNL1        0.2924
     64 H           2.0000   -3.2759    0.0000 H       1  UNL1        0.2923
     65 H           9.8658    6.1126    0.0000 H       1  UNL1        0.2923
     66 H          12.6601    3.1018    0.0000 H       1  UNL1        0.2923
     67 H          12.1321    5.4138    0.0000 H       1  UNL1        0.2924
@<TRIPOS>BOND
     1     1    21    1
     2     1    23    1
     3     2    19    1
     4     2    25    1
     5     3    22    1
     6     3    27    1
     7     4    20    1
     8     4    53    1
     9     5    23    1
    10     5    54    1
    11     6    24    1
    12     6    29    1
    13     7    25    2
    14     8    27    2
    15     9    29    2
    16    10    34    1
    17    10    59    1
    18    11    35    1
    19    11    60    1
    20    12    37    1
    21    12    61    1
    22    13    38    1
    23    13    62    1
    24    14    39    1
    25    14    63    1
    26    15    40    1
    27    15    64    1
    28    16    43    1
    29    16    65    1
    30    17    44    1
    31    17    66    1
    32    18    45    1
    33    18    67    1
    34    19    20    1
    35    19    21    1
    36    19    46    1
    37    20    22    1
    38    20    47    1
    39    21    24    1
    40    21    48    1
    41    22    23    1
    42    22    49    1
    43    23    50    1
    44    24    51    1
    45    24    52    1
    46    25    26    1
    47    26    28   ar
    48    26    33   ar
    49    27    32    1
    50    28    30    1
    51    28    34   ar
    52    29    31    1
    53    30    31   ar
    54    30    35   ar
    55    31    36   ar
    56    32    41   ar
    57    32    42   ar
    58    33    37   ar
    59    33    55    1
    60    34    38   ar
    61    35    39   ar
    62    36    40   ar
    63    36    56    1
    64    37    38   ar
    65    39    40   ar
    66    41    44   ar
    67    41    57    1
    68    42    43   ar
    69    42    58    1
    70    43    45   ar
    71    44    45   ar
