@<TRIPOS>MOLECULE
IMPHY017916
 8 7 0 0 0
SMALL
GASTEIGER

@<TRIPOS>ATOM
      1 O           2.5369    0.0000    0.0000 O.3     1  UNL1       -0.2088
      2 C           3.4030   -1.5000    0.0000 C.3     1  UNL1        0.0465
      3 C           3.4030   -0.5000    0.0000 C.3     1  UNL1        0.2149
      4 C           4.2690   -2.0000    0.0000 C.3     1  UNL1        0.0038
      5 C           4.2690    0.0000    0.0000 C.1     1  UNL1       -0.0588
      6 C           6.0010    1.0000    0.0000 C.3     1  UNL1        0.0762
      7 C           5.1350    0.5000    0.0000 C.1     1  UNL1       -0.0886
      8 C           6.0010    2.0000    0.0000 C.3     1  UNL1        0.0150
@<TRIPOS>BOND
     1     1     3    1
     2     2     3    1
     3     2     4    1
     4     3     5    1
     5     5     7    3
     6     6     7    1
     7     6     8    1
