@<TRIPOS>MOLECULE
IMPHY010110
 83 88 0 0 0
SMALL
GASTEIGER

@<TRIPOS>ATOM
      1 O           7.7662    1.6674    0.0000 O.3     1  UNL1       -0.3876
      2 O           7.7901   -1.4084    0.0000 O.3     1  UNL1       -0.3879
      3 O           4.2983    2.6541    0.0000 O.3     1  UNL1       -0.3911
      4 O           6.0010   -3.5361    0.0000 O.3     1  UNL1       -0.3453
      5 O           4.1621    5.1811    0.0000 O.3     1  UNL1       -0.4571
      6 O           4.2690   -3.5361    0.0000 O.3     1  UNL1       -0.3431
      7 O           4.7972    6.8461    0.0000 O.2     1  UNL1       -0.2456
      8 O           6.0010   -5.5361    0.0000 O.3     1  UNL1       -0.3841
      9 O           4.2690   -6.5361    0.0000 O.3     1  UNL1       -0.3864
     10 O           2.5369   -5.5361    0.0000 O.3     1  UNL1       -0.3866
     11 C           6.8982    2.1641    0.0000 C.3     1  UNL1        0.0774
     12 C           6.9021    1.1641    0.0000 C.3     1  UNL1       -0.0079
     13 C           6.0380    0.6608    0.0000 C.3     1  UNL1       -0.0252
     14 C           6.0303    2.6608    0.0000 C.3     1  UNL1        0.0295
     15 C           6.0260   -0.3808    0.0000 C.3     1  UNL1        0.0001
     16 C           6.9260   -0.9051    0.0000 C.3     1  UNL1        0.0741
     17 C           5.1662    2.1574    0.0000 C.3     1  UNL1        0.0641
     18 C           5.1701    1.1574    0.0000 C.3     1  UNL1       -0.0225
     19 C           6.2358    3.6334    0.0000 C.3     1  UNL1       -0.0057
     20 C           7.8140    0.6608    0.0000 C.3     1  UNL1       -0.0447
     21 C           7.6327    2.8340    0.0000 C.3     1  UNL1       -0.0226
     22 C           7.8261   -0.3808    0.0000 C.3     1  UNL1       -0.0230
     23 C           7.2241    3.7402    0.0000 C.3     1  UNL1       -0.0431
     24 C           5.0761   -0.9051    0.0000 C.3     1  UNL1       -0.0424
     25 C           6.9386   -1.9900    0.0000 C.3     1  UNL1        0.0030
     26 C           5.1624    3.1574    0.0000 C.3     1  UNL1       -0.0540
     27 C           5.1619    0.1225    0.0000 C.3     1  UNL1       -0.0567
     28 C           5.0635   -1.9900    0.0000 C.3     1  UNL1       -0.0258
     29 C           6.0010   -2.5361    0.0000 C.3     1  UNL1        0.0644
     30 C           5.5650    4.3751    0.0000 C.2     1  UNL1       -0.0221
     31 C           4.5708    4.2684    0.0000 C.3     1  UNL1        0.1147
     32 C           5.7709    5.3537    0.0000 C.2     1  UNL1        0.0252
     33 C           5.1350   -4.0361    0.0000 C.3     1  UNL1        0.1881
     34 C           4.9038    5.8518    0.0000 C.2     1  UNL1        0.3323
     35 C           5.1350   -5.0361    0.0000 C.3     1  UNL1        0.1341
     36 C           4.2690   -5.5361    0.0000 C.3     1  UNL1        0.1140
     37 C           3.4030   -4.0361    0.0000 C.3     1  UNL1        0.0873
     38 C           3.4030   -5.0361    0.0000 C.3     1  UNL1        0.1095
     39 C           2.5369   -3.5361    0.0000 C.3     1  UNL1       -0.0361
     40 H           7.6333    1.5976    0.0000 H       1  UNL1        0.0332
     41 H           6.7725    0.2329    0.0000 H       1  UNL1        0.0311
     42 H           5.7263    2.7774    0.0000 H       1  UNL1        0.0600
     43 H           4.5591    1.2627    0.0000 H       1  UNL1        0.0293
     44 H           4.9602    0.5740    0.0000 H       1  UNL1        0.0293
     45 H           6.4565    4.2128    0.0000 H       1  UNL1        0.0354
     46 H           8.4261    0.5617    0.0000 H       1  UNL1        0.0270
     47 H           8.0163    1.2468    0.0000 H       1  UNL1        0.0270
     48 H           8.0000    2.3346    0.0000 H       1  UNL1        0.0293
     49 H           8.1680    3.1468    0.0000 H       1  UNL1        0.0293
     50 H           8.0419   -0.9620    0.0000 H       1  UNL1        0.0293
     51 H           8.4357   -0.2677    0.0000 H       1  UNL1        0.0293
     52 H           7.8129    3.9343    0.0000 H       1  UNL1        0.0272
     53 H           7.0930    4.3462    0.0000 H       1  UNL1        0.0272
     54 H           4.8738   -0.3190    0.0000 H       1  UNL1        0.0272
     55 H           4.4640   -1.0041    0.0000 H       1  UNL1        0.0272
     56 H           7.1544   -2.5712    0.0000 H       1  UNL1        0.0318
     57 H           7.5482   -1.8769    0.0000 H       1  UNL1        0.0318
     58 H           5.4703    3.6955    0.0000 H       1  UNL1        0.0237
     59 H           4.6242    3.4653    0.0000 H       1  UNL1        0.0237
     60 H           4.8544    2.6193    0.0000 H       1  UNL1        0.0237
     61 H           5.4739    0.6583    0.0000 H       1  UNL1        0.0236
     62 H           4.6261    0.4346    0.0000 H       1  UNL1        0.0236
     63 H           4.8498   -0.4132    0.0000 H       1  UNL1        0.0236
     64 H           4.4539   -1.8769    0.0000 H       1  UNL1        0.0290
     65 H           4.8477   -2.5712    0.0000 H       1  UNL1        0.0290
     66 H           6.5386   -2.8451    0.0000 H       1  UNL1        0.0598
     67 H           8.3019    1.9795    0.0000 H       1  UNL1        0.2102
     68 H           8.3282   -1.1005    0.0000 H       1  UNL1        0.2102
     69 H           3.7625    2.3420    0.0000 H       1  UNL1        0.2098
     70 H           3.9815    4.0756    0.0000 H       1  UNL1        0.0746
     71 H           4.7009    3.6623    0.0000 H       1  UNL1        0.0746
     72 H           6.3367    5.6070    0.0000 H       1  UNL1        0.0689
     73 H           5.1350   -3.4161    0.0000 H       1  UNL1        0.0937
     74 H           5.1350   -5.6561    0.0000 H       1  UNL1        0.0671
     75 H           3.7320   -5.8461    0.0000 H       1  UNL1        0.0648
     76 H           3.4030   -3.4161    0.0000 H       1  UNL1        0.0621
     77 H           2.8660   -4.7261    0.0000 H       1  UNL1        0.0646
     78 H           6.0010   -6.1561    0.0000 H       1  UNL1        0.2101
     79 H           2.8469   -2.9992    0.0000 H       1  UNL1        0.0255
     80 H           2.0000   -3.2261    0.0000 H       1  UNL1        0.0255
     81 H           2.2269   -4.0731    0.0000 H       1  UNL1        0.0255
     82 H           3.7320   -6.8461    0.0000 H       1  UNL1        0.2100
     83 H           2.0000   -5.2261    0.0000 H       1  UNL1        0.2100
@<TRIPOS>BOND
     1    11     1    1
     2     1    67    1
     3    16     2    1
     4     2    68    1
     5    17     3    1
     6     3    69    1
     7    29     4    1
     8    33     4    1
     9     5    31    1
    10     5    34    1
    11     6    33    1
    12     6    37    1
    13     7    34    2
    14    35     8    1
    15     8    78    1
    16    36     9    1
    17     9    82    1
    18    38    10    1
    19    10    83    1
    20    11    12    1
    21    11    14    1
    22    11    21    1
    23    12    13    1
    24    12    20    1
    25    12    40    1
    26    13    15    1
    27    13    18    1
    28    13    41    1
    29    14    17    1
    30    14    19    1
    31    14    26    1
    32    15    16    1
    33    15    24    1
    34    15    27    1
    35    16    22    1
    36    16    25    1
    37    17    18    1
    38    17    42    1
    39    18    43    1
    40    18    44    1
    41    19    23    1
    42    19    30    1
    43    19    45    1
    44    20    22    1
    45    20    46    1
    46    20    47    1
    47    21    23    1
    48    21    48    1
    49    21    49    1
    50    22    50    1
    51    22    51    1
    52    23    52    1
    53    23    53    1
    54    24    28    1
    55    24    54    1
    56    24    55    1
    57    25    29    1
    58    25    56    1
    59    25    57    1
    60    26    58    1
    61    26    59    1
    62    26    60    1
    63    27    61    1
    64    27    62    1
    65    27    63    1
    66    28    29    1
    67    28    64    1
    68    28    65    1
    69    29    66    1
    70    30    31    1
    71    30    32    2
    72    31    70    1
    73    31    71    1
    74    32    34    1
    75    32    72    1
    76    33    35    1
    77    33    73    1
    78    35    36    1
    79    35    74    1
    80    36    38    1
    81    36    75    1
    82    37    38    1
    83    37    39    1
    84    37    76    1
    85    38    77    1
    86    39    79    1
    87    39    80    1
    88    39    81    1
