@<TRIPOS>MOLECULE
IMPHY007787
 109 117 0 0 0
SMALL
GASTEIGER

@<TRIPOS>ATOM
      1 O           8.9859    1.2915    0.0000 O.3     1  UNL1       -0.3282
      2 O          11.4266   -0.7029    0.0000 O.3     1  UNL1       -0.4500
      3 O           9.8680   -1.2500    0.0000 O.3     1  UNL1       -0.4512
      4 O          11.4493    2.2481    0.0000 O.3     1  UNL1       -0.4476
      5 O           9.8801    2.8193    0.0000 O.3     1  UNL1       -0.4594
      6 O           7.8772   -1.2159    0.0000 O.3     1  UNL1       -0.4584
      7 O          12.4938   -2.0907    0.0000 O.2     1  UNL1       -0.2449
      8 O           8.8477   -2.9303    0.0000 O.2     1  UNL1       -0.2449
      9 O          12.5379    3.6193    0.0000 O.2     1  UNL1       -0.2449
     10 O           8.8772   -1.2159    0.0000 O.2     1  UNL1       -0.2449
     11 O          16.4922    0.2857    0.0000 O.3     1  UNL1       -0.5028
     12 O          16.4991    1.1816    0.0000 O.3     1  UNL1       -0.5028
     13 O           9.3740   -5.5842    0.0000 O.3     1  UNL1       -0.5028
     14 O           8.3803   -5.5842    0.0000 O.3     1  UNL1       -0.5028
     15 O          15.6717   -2.9458    0.0000 O.3     1  UNL1       -0.5032
     16 O          15.7286    4.4253    0.0000 O.3     1  UNL1       -0.5032
     17 O          16.9981   -1.1740    0.0000 O.3     1  UNL1       -0.5009
     18 O          17.0275    2.6333    0.0000 O.3     1  UNL1       -0.5009
     19 O           6.4160    2.8059    0.0000 O.3     1  UNL1       -0.5031
     20 O           8.1365    5.8126    0.0000 O.3     1  UNL1       -0.5031
     21 O          12.4464   -3.8261    0.0000 O.3     1  UNL1       -0.5032
     22 O           5.3079   -3.8261    0.0000 O.3     1  UNL1       -0.4476
     23 O          11.4223   -5.6000    0.0000 O.3     1  UNL1       -0.5009
     24 O           6.4083    4.8059    0.0000 O.3     1  UNL1       -0.5009
     25 O           6.3321   -5.6000    0.0000 O.3     1  UNL1       -0.5009
     26 O           6.3146   -2.0979    0.0000 O.3     1  UNL1       -0.5008
     27 O           5.3213   -0.3620    0.0000 O.3     1  UNL1       -0.5008
     28 O           3.3213   -0.3543    0.0000 O.3     1  UNL1       -0.5032
     29 O           2.3079   -3.8145    0.0000 O.3     1  UNL1       -0.4770
     30 O           3.8046   -4.6863    0.0000 O.2     1  UNL1       -0.2450
     31 C          10.7780    0.2569    0.0000 C.3     1  UNL1        0.1851
     32 C           9.8680   -0.2500    0.0000 C.3     1  UNL1        0.1730
     33 C          10.7861    1.2985    0.0000 C.3     1  UNL1        0.2052
     34 C           9.0020    0.2500    0.0000 C.3     1  UNL1        0.1371
     35 C           9.8840    1.8193    0.0000 C.3     1  UNL1        0.2432
     36 C           8.1360   -0.2500    0.0000 C.3     1  UNL1        0.1226
     37 C          12.5180   -1.0910    0.0000 C.2     1  UNL1        0.3405
     38 C           9.3772   -2.0819    0.0000 C.2     1  UNL1        0.3405
     39 C          12.5466    2.6194    0.0000 C.2     1  UNL1        0.3406
     40 C           9.0122    3.3159    0.0000 C.ar    1  UNL1        0.1312
     41 C          13.6269   -0.7561    0.0000 C.ar    1  UNL1        0.0740
     42 C          13.6502    2.2674    0.0000 C.ar    1  UNL1        0.0740
     43 C           9.8772   -2.9480    0.0000 C.ar    1  UNL1        0.0740
     44 C          14.3211    0.1712    0.0000 C.ar    1  UNL1        0.0458
     45 C          14.3301    1.3295    0.0000 C.ar    1  UNL1        0.0458
     46 C           8.3772   -2.0819    0.0000 C.2     1  UNL1        0.3401
     47 C           9.3772   -3.8140    0.0000 C.ar    1  UNL1        0.0458
     48 C           7.8772   -2.9480    0.0000 C.ar    1  UNL1        0.0740
     49 C           8.3772   -3.8140    0.0000 C.ar    1  UNL1        0.0458
     50 C           9.0083    4.3159    0.0000 C.ar    1  UNL1        0.0256
     51 C           8.1481    2.8126    0.0000 C.ar    1  UNL1        0.0256
     52 C          14.0847   -1.8725    0.0000 C.ar    1  UNL1       -0.0017
     53 C          14.1252    3.3766    0.0000 C.ar    1  UNL1       -0.0017
     54 C          15.5213    0.0464    0.0000 C.ar    1  UNL1        0.1708
     55 C          10.9187   -2.9319    0.0000 C.ar    1  UNL1       -0.0017
     56 C          15.5320    1.4358    0.0000 C.ar    1  UNL1        0.1708
     57 C           9.8840   -4.7240    0.0000 C.ar    1  UNL1        0.1708
     58 C           7.8703   -4.7240    0.0000 C.ar    1  UNL1        0.1708
     59 C          15.2817   -2.0250    0.0000 C.ar    1  UNL1        0.1628
     60 C           6.8356   -2.9319    0.0000 C.ar    1  UNL1       -0.0009
     61 C          15.3243    3.5106    0.0000 C.ar    1  UNL1        0.1628
     62 C          16.0048   -1.0591    0.0000 C.ar    1  UNL1        0.2012
     63 C          16.0324    2.5337    0.0000 C.ar    1  UNL1        0.2012
     64 C           7.2801    3.3093    0.0000 C.ar    1  UNL1        0.1655
     65 C           8.1404    4.8126    0.0000 C.ar    1  UNL1        0.1655
     66 C          11.4464   -3.8299    0.0000 C.ar    1  UNL1        0.1628
     67 C          10.9256   -4.7320    0.0000 C.ar    1  UNL1        0.2012
     68 C           7.2763    4.3092    0.0000 C.ar    1  UNL1        0.2008
     69 C           6.3079   -3.8299    0.0000 C.ar    1  UNL1        0.1743
     70 C           6.8287   -4.7320    0.0000 C.ar    1  UNL1        0.2021
     71 C           4.8112   -2.9581    0.0000 C.ar    1  UNL1        0.1876
     72 C           3.8112   -2.9543    0.0000 C.ar    1  UNL1        0.1083
     73 C           5.3146   -2.0940    0.0000 C.ar    1  UNL1        0.2060
     74 C           3.3146   -2.0863    0.0000 C.ar    1  UNL1        0.0013
     75 C           4.8179   -1.2261    0.0000 C.ar    1  UNL1        0.2044
     76 C           3.8179   -1.2222    0.0000 C.ar    1  UNL1        0.1630
     77 C           3.3079   -3.8184    0.0000 C.2     1  UNL1        0.3406
     78 H          10.5808   -0.5699    0.0000 H       1  UNL1        0.0813
     79 H          10.6009   -0.6806    0.0000 H       1  UNL1        0.0801
     80 H          10.6016    2.1282    0.0000 H       1  UNL1        0.0837
     81 H           8.2626    0.6693    0.0000 H       1  UNL1        0.0670
     82 H           9.3453    2.1262    0.0000 H       1  UNL1        0.1097
     83 H           7.9755    0.3489    0.0000 H       1  UNL1        0.0725
     84 H           7.5160   -0.2500    0.0000 H       1  UNL1        0.0725
     85 H           9.5441    4.6280    0.0000 H       1  UNL1        0.0692
     86 H           8.1505    2.1926    0.0000 H       1  UNL1        0.0692
     87 H          13.7075   -2.3645    0.0000 H       1  UNL1        0.0664
     88 H          13.7556    3.8744    0.0000 H       1  UNL1        0.0664
     89 H          11.2224   -2.3914    0.0000 H       1  UNL1        0.0664
     90 H           6.5319   -2.3914    0.0000 H       1  UNL1        0.0664
     91 H          16.9217   -0.1615    0.0000 H       1  UNL1        0.2923
     92 H          16.9354    1.6221    0.0000 H       1  UNL1        0.2923
     93 H           9.6778   -6.1246    0.0000 H       1  UNL1        0.2923
     94 H           8.0765   -6.1246    0.0000 H       1  UNL1        0.2923
     95 H          15.2983   -3.4407    0.0000 H       1  UNL1        0.2923
     96 H          15.3628    4.9259    0.0000 H       1  UNL1        0.2923
     97 H          17.2444   -1.7430    0.0000 H       1  UNL1        0.2924
     98 H          17.2825    3.1984    0.0000 H       1  UNL1        0.2924
     99 H           5.8779    3.1138    0.0000 H       1  UNL1        0.2923
    100 H           8.6723    6.1246    0.0000 H       1  UNL1        0.2923
    101 H          12.7585   -4.3618    0.0000 H       1  UNL1        0.2923
    102 H          12.0423   -5.6023    0.0000 H       1  UNL1        0.2924
    103 H           6.4060    5.4259    0.0000 H       1  UNL1        0.2924
    104 H           5.7121   -5.6023    0.0000 H       1  UNL1        0.2924
    105 H           2.6946   -2.0839    0.0000 H       1  UNL1        0.0665
    106 H           6.6266   -1.5622    0.0000 H       1  UNL1        0.2924
    107 H           5.0133    0.1761    0.0000 H       1  UNL1        0.2924
    108 H           2.7013   -0.3519    0.0000 H       1  UNL1        0.2923
    109 H           2.0000   -3.2764    0.0000 H       1  UNL1        0.2954
@<TRIPOS>BOND
     1     1    34    1
     2     1    35    1
     3     2    31    1
     4     2    37    1
     5     3    32    1
     6     3    38    1
     7     4    33    1
     8     4    39    1
     9    35     5    1
    10     5    40    1
    11     6    36    1
    12     6    46    1
    13     7    37    2
    14     8    38    2
    15     9    39    2
    16    10    46    2
    17    11    54    1
    18    11    91    1
    19    12    56    1
    20    12    92    1
    21    13    57    1
    22    13    93    1
    23    14    58    1
    24    14    94    1
    25    15    59    1
    26    15    95    1
    27    16    61    1
    28    16    96    1
    29    17    62    1
    30    17    97    1
    31    18    63    1
    32    18    98    1
    33    19    64    1
    34    19    99    1
    35    20    65    1
    36    20   100    1
    37    21    66    1
    38    21   101    1
    39    22    69    1
    40    22    71    1
    41    23    67    1
    42    23   102    1
    43    24    68    1
    44    24   103    1
    45    25    70    1
    46    25   104    1
    47    26    73    1
    48    26   106    1
    49    27    75    1
    50    27   107    1
    51    28    76    1
    52    28   108    1
    53    29    77    1
    54    29   109    1
    55    30    77    2
    56    31    32    1
    57    31    33    1
    58    31    78    1
    59    32    34    1
    60    32    79    1
    61    33    35    1
    62    33    80    1
    63    34    36    1
    64    34    81    1
    65    35    82    1
    66    36    83    1
    67    36    84    1
    68    37    41    1
    69    38    43    1
    70    39    42    1
    71    40    50   ar
    72    40    51   ar
    73    41    44   ar
    74    41    52   ar
    75    42    45   ar
    76    42    53   ar
    77    43    47   ar
    78    43    55   ar
    79    44    45    1
    80    44    54   ar
    81    45    56   ar
    82    46    48    1
    83    47    49    1
    84    47    57   ar
    85    48    49   ar
    86    48    60   ar
    87    49    58   ar
    88    50    65   ar
    89    50    85    1
    90    51    64   ar
    91    51    86    1
    92    52    59   ar
    93    52    87    1
    94    53    61   ar
    95    53    88    1
    96    54    62   ar
    97    55    66   ar
    98    55    89    1
    99    56    63   ar
   100    57    67   ar
   101    58    70   ar
   102    59    62   ar
   103    60    69   ar
   104    60    90    1
   105    61    63   ar
   106    64    68   ar
   107    65    68   ar
   108    66    67   ar
   109    69    70   ar
   110    71    72   ar
   111    71    73   ar
   112    72    74   ar
   113    72    77    1
   114    73    75   ar
   115    74    76   ar
   116    74   105    1
   117    75    76   ar
