@<TRIPOS>MOLECULE
IMPHY004048
 55 58 0 0 0
SMALL
GASTEIGER

@<TRIPOS>ATOM
      1 O           9.6285    1.9852    0.0000 O.3     1  UNL1       -0.3918
      2 O           2.0000   -2.5286    0.0000 O.2     1  UNL1       -0.2927
      3 C           7.3931    0.5237    0.0000 C.3     1  UNL1       -0.0238
      4 C           7.3931   -0.4763    0.0000 C.3     1  UNL1       -0.0322
      5 C           6.5271   -0.9763    0.0000 C.3     1  UNL1       -0.0338
      6 C           5.6610   -0.4763    0.0000 C.3     1  UNL1       -0.0288
      7 C           8.3393    0.8284    0.0000 C.3     1  UNL1       -0.0096
      8 C           6.5271    1.0237    0.0000 C.3     1  UNL1       -0.0467
      9 C           4.7510   -0.9832    0.0000 C.3     1  UNL1       -0.0072
     10 C           8.3393   -0.7810    0.0000 C.3     1  UNL1       -0.0491
     11 C           5.6610    0.5237    0.0000 C.3     1  UNL1       -0.0487
     12 C           8.9229    0.0237    0.0000 C.3     1  UNL1       -0.0471
     13 C           6.5431   -2.0178    0.0000 C.3     1  UNL1       -0.0459
     14 C           7.3931    1.5237    0.0000 C.3     1  UNL1       -0.0590
     15 C           4.7430   -2.0248    0.0000 C.2     1  UNL1       -0.0601
     16 C           5.6451   -2.5456    0.0000 C.3     1  UNL1       -0.0305
     17 C           8.6500    1.7789    0.0000 C.3     1  UNL1        0.0558
     18 C           3.8242   -0.4191    0.0000 C.3     1  UNL1       -0.0367
     19 C           4.7587    0.0168    0.0000 C.3     1  UNL1       -0.0556
     20 C           2.8763   -0.9470    0.0000 C.3     1  UNL1        0.0107
     21 C           3.8076   -2.5745    0.0000 C.2     1  UNL1       -0.0194
     22 C           7.9821    2.5232    0.0000 C.3     1  UNL1       -0.0387
     23 C           2.8680   -2.0320    0.0000 C.2     1  UNL1        0.1561
     24 H           7.4830   -1.3215    0.0000 H       1  UNL1        0.0309
     25 H           7.2664   -1.3956    0.0000 H       1  UNL1        0.0307
     26 H           6.3972   -0.0513    0.0000 H       1  UNL1        0.0312
     27 H           9.1790    0.9603    0.0000 H       1  UNL1        0.0331
     28 H           6.9256    1.4986    0.0000 H       1  UNL1        0.0271
     29 H           6.1285    1.4986    0.0000 H       1  UNL1        0.0271
     30 H           8.0883   -1.3480    0.0000 H       1  UNL1        0.0268
     31 H           8.8767   -1.0903    0.0000 H       1  UNL1        0.0268
     32 H           5.4490    1.1063    0.0000 H       1  UNL1        0.0268
     33 H           5.0504    0.4160    0.0000 H       1  UNL1        0.0268
     34 H           9.3838   -0.3910    0.0000 H       1  UNL1        0.0269
     35 H           9.3838    0.4384    0.0000 H       1  UNL1        0.0269
     36 H           6.7612   -2.5982    0.0000 H       1  UNL1        0.0271
     37 H           7.1523   -1.9023    0.0000 H       1  UNL1        0.0271
     38 H           8.0131    1.5237    0.0000 H       1  UNL1        0.0235
     39 H           7.3931    2.1437    0.0000 H       1  UNL1        0.0235
     40 H           6.7731    1.5237    0.0000 H       1  UNL1        0.0235
     41 H           5.2478   -3.0215    0.0000 H       1  UNL1        0.0310
     42 H           6.0460   -3.0185    0.0000 H       1  UNL1        0.0310
     43 H           8.8426    2.3683    0.0000 H       1  UNL1        0.0593
     44 H           4.2324    0.0476    0.0000 H       1  UNL1        0.0278
     45 H           3.4343    0.0630    0.0000 H       1  UNL1        0.0278
     46 H           5.3787    0.0120    0.0000 H       1  UNL1        0.0238
     47 H           4.7635    0.6368    0.0000 H       1  UNL1        0.0238
     48 H           4.1388    0.0216    0.0000 H       1  UNL1        0.0238
     49 H           2.6718   -0.3617    0.0000 H       1  UNL1        0.0345
     50 H           2.2647   -1.0484    0.0000 H       1  UNL1        0.0345
     51 H           3.8100   -3.1945    0.0000 H       1  UNL1        0.0652
     52 H           8.4436    2.9373    0.0000 H       1  UNL1        0.0255
     53 H           7.5681    2.9847    0.0000 H       1  UNL1        0.0255
     54 H           7.5207    2.1092    0.0000 H       1  UNL1        0.0255
     55 H           9.8211    2.5745    0.0000 H       1  UNL1        0.2098
@<TRIPOS>BOND
     1    17     1    1
     2     1    55    1
     3     2    23    2
     4     3     4    1
     5     3     7    1
     6     3     8    1
     7     3    14    1
     8     4     5    1
     9     4    10    1
    10     4    24    1
    11     5     6    1
    12     5    13    1
    13     5    25    1
    14     6     9    1
    15     6    11    1
    16     6    26    1
    17     7    12    1
    18     7    17    1
    19     7    27    1
    20     8    11    1
    21     8    28    1
    22     8    29    1
    23     9    15    1
    24     9    18    1
    25     9    19    1
    26    10    12    1
    27    10    30    1
    28    10    31    1
    29    11    32    1
    30    11    33    1
    31    12    34    1
    32    12    35    1
    33    13    16    1
    34    13    36    1
    35    13    37    1
    36    14    38    1
    37    14    39    1
    38    14    40    1
    39    15    16    1
    40    15    21    2
    41    16    41    1
    42    16    42    1
    43    17    22    1
    44    17    43    1
    45    18    20    1
    46    18    44    1
    47    18    45    1
    48    19    46    1
    49    19    47    1
    50    19    48    1
    51    20    23    1
    52    20    49    1
    53    20    50    1
    54    21    23    1
    55    21    51    1
    56    22    52    1
    57    22    53    1
    58    22    54    1
