@<TRIPOS>MOLECULE
IMPHY005362
 59 61 0 0 0
SMALL
GASTEIGER

@<TRIPOS>ATOM
      1 O           4.2690   -1.6297    0.0000 O.3     1  UNL1       -0.3405
      2 O           6.4084    4.5864    0.0000 O.3     1  UNL1       -0.3862
      3 O           6.0010   -1.6297    0.0000 O.3     1  UNL1       -0.3484
      4 O           4.2690   -4.6297    0.0000 O.3     1  UNL1       -0.3864
      5 O           9.4486    2.8312    0.0000 O.2     1  UNL1       -0.2914
      6 O           2.5369   -3.6297    0.0000 O.3     1  UNL1       -0.3865
      7 O           6.0010   -3.6297    0.0000 O.3     1  UNL1       -0.3841
      8 O           2.5369   -0.6297    0.0000 O.3     1  UNL1       -0.3924
      9 C           8.0650    3.9452    0.0000 C.3     1  UNL1        0.0579
     10 C           7.0763    3.8421    0.0000 C.3     1  UNL1        0.0929
     11 C           6.8671    2.8703    0.0000 C.ar    1  UNL1       -0.0072
     12 C           7.7331    2.3703    0.0000 C.ar    1  UNL1        0.0269
     13 C           8.4701    3.0374    0.0000 C.2     1  UNL1        0.1721
     14 C           4.2690   -3.6297    0.0000 C.3     1  UNL1        0.1141
     15 C           3.4030   -3.1297    0.0000 C.3     1  UNL1        0.1119
     16 C           5.1350   -3.1297    0.0000 C.3     1  UNL1        0.1341
     17 C           7.7331    1.3703    0.0000 C.ar    1  UNL1       -0.0361
     18 C           3.4030   -2.1297    0.0000 C.3     1  UNL1        0.1130
     19 C           5.1350   -2.1297    0.0000 C.3     1  UNL1        0.1879
     20 C           7.9605    4.9397    0.0000 C.3     1  UNL1       -0.0500
     21 C           8.9785    4.3519    0.0000 C.3     1  UNL1       -0.0500
     22 C           6.8671    0.8703    0.0000 C.ar    1  UNL1       -0.0387
     23 C           6.0010    2.3703    0.0000 C.ar    1  UNL1       -0.0522
     24 C           6.0010    1.3703    0.0000 C.ar    1  UNL1       -0.0466
     25 C           6.8671   -0.1297    0.0000 C.3     1  UNL1       -0.0035
     26 C           6.0010   -0.6297    0.0000 C.3     1  UNL1        0.0547
     27 C           2.5369   -1.6297    0.0000 C.3     1  UNL1        0.0730
     28 C           8.5991    0.8703    0.0000 C.3     1  UNL1       -0.0388
     29 C           5.1350    0.8703    0.0000 C.3     1  UNL1       -0.0394
     30 H           6.4770    3.6830    0.0000 H       1  UNL1        0.0653
     31 H           4.8059   -3.9397    0.0000 H       1  UNL1        0.0648
     32 H           3.4030   -3.7497    0.0000 H       1  UNL1        0.0647
     33 H           5.6720   -2.8197    0.0000 H       1  UNL1        0.0671
     34 H           3.4030   -1.5097    0.0000 H       1  UNL1        0.0647
     35 H           5.1350   -1.5097    0.0000 H       1  UNL1        0.0937
     36 H           9.2307    3.7855    0.0000 H       1  UNL1        0.0240
     37 H           9.5449    4.6041    0.0000 H       1  UNL1        0.0240
     38 H           8.7264    4.9183    0.0000 H       1  UNL1        0.0240
     39 H           8.5771    5.0045    0.0000 H       1  UNL1        0.0240
     40 H           7.8956    5.5563    0.0000 H       1  UNL1        0.0240
     41 H           7.3439    4.8749    0.0000 H       1  UNL1        0.0240
     42 H           5.4641    2.6803    0.0000 H       1  UNL1        0.0624
     43 H           7.0791   -0.7123    0.0000 H       1  UNL1        0.0336
     44 H           7.4776   -0.0220    0.0000 H       1  UNL1        0.0336
     45 H           5.7890   -0.0471    0.0000 H       1  UNL1        0.0564
     46 H           5.3905   -0.7374    0.0000 H       1  UNL1        0.0564
     47 H           1.9264   -1.5220    0.0000 H       1  UNL1        0.0584
     48 H           2.3249   -2.2123    0.0000 H       1  UNL1        0.0584
     49 H           5.8018    4.4586    0.0000 H       1  UNL1        0.2103
     50 H           8.2891    0.3334    0.0000 H       1  UNL1        0.0278
     51 H           9.1360    0.5603    0.0000 H       1  UNL1        0.0278
     52 H           8.9091    1.4072    0.0000 H       1  UNL1        0.0278
     53 H           4.8250    1.4072    0.0000 H       1  UNL1        0.0278
     54 H           4.5981    0.5603    0.0000 H       1  UNL1        0.0278
     55 H           5.4450    0.3334    0.0000 H       1  UNL1        0.0278
     56 H           3.7320   -4.9397    0.0000 H       1  UNL1        0.2100
     57 H           2.0000   -3.3197    0.0000 H       1  UNL1        0.2100
     58 H           6.5380   -3.3197    0.0000 H       1  UNL1        0.2101
     59 H           2.0000   -0.3197    0.0000 H       1  UNL1        0.2095
@<TRIPOS>BOND
     1     1    18    1
     2     1    19    1
     3    10     2    1
     4     2    49    1
     5    19     3    1
     6     3    26    1
     7    14     4    1
     8     4    56    1
     9     5    13    2
    10    15     6    1
    11     6    57    1
    12    16     7    1
    13     7    58    1
    14     8    27    1
    15     8    59    1
    16     9    10    1
    17     9    13    1
    18     9    20    1
    19     9    21    1
    20    10    11    1
    21    10    30    1
    22    11    12   ar
    23    11    23   ar
    24    12    13    1
    25    12    17   ar
    26    14    15    1
    27    14    16    1
    28    14    31    1
    29    15    18    1
    30    15    32    1
    31    16    19    1
    32    16    33    1
    33    17    22   ar
    34    17    28    1
    35    18    27    1
    36    18    34    1
    37    19    35    1
    38    20    39    1
    39    20    40    1
    40    20    41    1
    41    21    36    1
    42    21    37    1
    43    21    38    1
    44    22    24   ar
    45    22    25    1
    46    23    24   ar
    47    23    42    1
    48    24    29    1
    49    25    26    1
    50    25    43    1
    51    25    44    1
    52    26    45    1
    53    26    46    1
    54    27    47    1
    55    27    48    1
    56    28    50    1
    57    28    51    1
    58    28    52    1
    59    29    53    1
    60    29    54    1
    61    29    55    1
