@<TRIPOS>MOLECULE
IMPHY001997
 53 56 0 0 0
SMALL
GASTEIGER

@<TRIPOS>ATOM
      1 O           3.2055   -2.6882    0.0000 O.3     1  UNL1       -0.3877
      2 O           2.9877    0.3800    0.0000 O.3     1  UNL1       -0.3870
      3 O           4.9131    2.4847    0.0000 O.3     1  UNL1       -0.3797
      4 O           4.0896    3.4680    0.0000 O.2     1  UNL1       -0.2893
      5 O           7.5682    0.4105    0.0000 O.3     1  UNL1       -0.3907
      6 C           4.8835   -1.5251    0.0000 C.3     1  UNL1        0.0050
      7 C           4.0274   -2.1185    0.0000 C.3     1  UNL1        0.0759
      8 C           4.9696   -2.5637    0.0000 C.3     1  UNL1        0.0003
      9 C           4.7896   -0.4877    0.0000 C.3     1  UNL1        0.0132
     10 C           3.8887   -0.0539    0.0000 C.3     1  UNL1        0.0846
     11 C           3.0889   -1.6666    0.0000 C.3     1  UNL1       -0.0180
     12 C           3.0191   -0.6273    0.0000 C.3     1  UNL1       -0.0111
     13 C           5.9662   -2.4812    0.0000 C.3     1  UNL1       -0.0568
     14 C           4.5427   -3.4680    0.0000 C.3     1  UNL1       -0.0568
     15 C           3.6662    0.9211    0.0000 C.3     1  UNL1        0.0438
     16 C           5.6906   -0.0539    0.0000 C.2     1  UNL1       -0.0763
     17 C           4.2896    1.7029    0.0000 C.3     1  UNL1        0.1403
     18 C           2.0211   -0.6905    0.0000 C.3     1  UNL1       -0.0597
     19 C           5.2896    1.7029    0.0000 C.3     1  UNL1        0.0073
     20 C           5.9131    0.9211    0.0000 C.2     1  UNL1       -0.0449
     21 C           2.7364    1.2728    0.0000 C.2     1  UNL1       -0.0687
     22 C           3.7399    2.5311    0.0000 C.2     1  UNL1        0.1909
     23 C           2.7818    2.2658    0.0000 C.2     1  UNL1       -0.0086
     24 C           6.8881    1.1436    0.0000 C.3     1  UNL1        0.0654
     25 C           2.0000    2.8893    0.0000 C.3     1  UNL1       -0.0366
     26 H           5.7303   -1.4517    0.0000 H       1  UNL1        0.0341
     27 H           5.5290   -0.9071    0.0000 H       1  UNL1        0.0375
     28 H           2.4723   -1.6017    0.0000 H       1  UNL1        0.0297
     29 H           2.9195   -2.2630    0.0000 H       1  UNL1        0.0297
     30 H           2.8222   -0.0394    0.0000 H       1  UNL1        0.0327
     31 H           4.4948    0.7319    0.0000 H       1  UNL1        0.0404
     32 H           6.0173   -3.0991    0.0000 H       1  UNL1        0.0236
     33 H           6.5841   -2.4301    0.0000 H       1  UNL1        0.0236
     34 H           5.9151   -1.8634    0.0000 H       1  UNL1        0.0236
     35 H           3.9821   -3.2033    0.0000 H       1  UNL1        0.0236
     36 H           4.2780   -4.0286    0.0000 H       1  UNL1        0.0236
     37 H           5.1034   -3.7326    0.0000 H       1  UNL1        0.0236
     38 H           6.1754   -0.4404    0.0000 H       1  UNL1        0.0576
     39 H           3.2566   -3.3061    0.0000 H       1  UNL1        0.2102
     40 H           1.9819   -0.0717    0.0000 H       1  UNL1        0.0233
     41 H           1.4023   -0.7297    0.0000 H       1  UNL1        0.0233
     42 H           2.0603   -1.3092    0.0000 H       1  UNL1        0.0233
     43 H           2.3694    0.3337    0.0000 H       1  UNL1        0.2102
     44 H           5.8482    1.9719    0.0000 H       1  UNL1        0.0343
     45 H           5.1517    2.3074    0.0000 H       1  UNL1        0.0343
     46 H           2.2184    0.9321    0.0000 H       1  UNL1        0.0580
     47 H           5.5262    2.3923    0.0000 H       1  UNL1        0.2108
     48 H           7.4089    1.4800    0.0000 H       1  UNL1        0.0604
     49 H           6.6472    1.7149    0.0000 H       1  UNL1        0.0604
     50 H           2.3866    3.3740    0.0000 H       1  UNL1        0.0279
     51 H           1.5153    3.2759    0.0000 H       1  UNL1        0.0279
     52 H           1.6134    2.4046    0.0000 H       1  UNL1        0.0279
     53 H           8.1727    0.5485    0.0000 H       1  UNL1        0.2098
@<TRIPOS>BOND
     1     7     1    1
     2     1    39    1
     3    10     2    1
     4     2    43    1
     5    17     3    1
     6     3    47    1
     7     4    22    2
     8     5    24    1
     9     5    53    1
    10     6     7    1
    11     6     8    1
    12     6     9    1
    13     6    26    1
    14     7     8    1
    15     7    11    1
    16     8    13    1
    17     8    14    1
    18     9    10    1
    19     9    16    1
    20     9    27    1
    21    10    12    1
    22    10    15    1
    23    11    12    1
    24    11    28    1
    25    11    29    1
    26    12    18    1
    27    12    30    1
    28    13    32    1
    29    13    33    1
    30    13    34    1
    31    14    35    1
    32    14    36    1
    33    14    37    1
    34    15    17    1
    35    15    21    1
    36    15    31    1
    37    16    20    2
    38    16    38    1
    39    17    19    1
    40    17    22    1
    41    18    40    1
    42    18    41    1
    43    18    42    1
    44    19    20    1
    45    19    44    1
    46    19    45    1
    47    20    24    1
    48    21    23    2
    49    21    46    1
    50    22    23    1
    51    23    25    1
    52    24    48    1
    53    24    49    1
    54    25    50    1
    55    25    51    1
    56    25    52    1
