@<TRIPOS>MOLECULE
IMPHY011084
 39 41 0 0 0
SMALL
GASTEIGER

@<TRIPOS>ATOM
      1 C           3.3209   -0.3196    0.0000 C.3     1  UNL1       -0.0024
      2 C           4.1299    0.2682    0.0000 C.3     1  UNL1       -0.0191
      3 C           3.8209    1.2192    0.0000 C.3     1  UNL1       -0.0296
      4 C           3.3141    0.9538    0.0000 C.3     1  UNL1       -0.0307
      5 C           3.0669    0.1930    0.0000 C.3     1  UNL1       -0.0377
      6 C           2.5119    0.2682    0.0000 C.3     1  UNL1       -0.0429
      7 C           2.8209    1.2192    0.0000 C.3     1  UNL1       -0.0484
      8 C           5.0879   -0.1408    0.0000 C.3     1  UNL1       -0.0431
      9 C           3.4138   -1.3571    0.0000 C.2     1  UNL1       -0.0698
     10 C           4.9389    0.8560    0.0000 C.3     1  UNL1       -0.0585
     11 C           3.1233    1.9355    0.0000 C.3     1  UNL1       -0.0595
     12 C           2.3215    1.0757    0.0000 C.3     1  UNL1       -0.0595
     13 C           5.2048   -1.1758    0.0000 C.3     1  UNL1       -0.0340
     14 C           4.3621   -1.7881    0.0000 C.2     1  UNL1       -0.0845
     15 C           2.5980   -1.9355    0.0000 C.3     1  UNL1       -0.0432
     16 H           4.3442    1.8890    0.0000 H       1  UNL1        0.0311
     17 H           2.6030   -0.2184    0.0000 H       1  UNL1        0.0279
     18 H           2.5482    0.5326    0.0000 H       1  UNL1        0.0279
     19 H           2.2019   -0.2688    0.0000 H       1  UNL1        0.0274
     20 H           1.9455    0.5204    0.0000 H       1  UNL1        0.0274
     21 H           2.2144    1.3481    0.0000 H       1  UNL1        0.0269
     22 H           2.8857    1.8358    0.0000 H       1  UNL1        0.0269
     23 H           5.2302    0.4627    0.0000 H       1  UNL1        0.0274
     24 H           5.7068   -0.1777    0.0000 H       1  UNL1        0.0274
     25 H           4.5745    1.3576    0.0000 H       1  UNL1        0.0235
     26 H           5.4405    1.2204    0.0000 H       1  UNL1        0.0235
     27 H           5.3034    0.3544    0.0000 H       1  UNL1        0.0235
     28 H           2.5147    1.8172    0.0000 H       1  UNL1        0.0235
     29 H           3.0050    2.5441    0.0000 H       1  UNL1        0.0235
     30 H           3.7319    2.0538    0.0000 H       1  UNL1        0.0235
     31 H           2.2460    0.4603    0.0000 H       1  UNL1        0.0235
     32 H           1.7062    1.1513    0.0000 H       1  UNL1        0.0235
     33 H           2.3971    1.6911    0.0000 H       1  UNL1        0.0235
     34 H           5.7999   -1.0019    0.0000 H       1  UNL1        0.0308
     35 H           5.4780   -1.7324    0.0000 H       1  UNL1        0.0308
     36 H           4.4245   -2.4049    0.0000 H       1  UNL1        0.0572
     37 H           2.9566   -2.4412    0.0000 H       1  UNL1        0.0275
     38 H           2.0923   -2.2941    0.0000 H       1  UNL1        0.0275
     39 H           2.2394   -1.4297    0.0000 H       1  UNL1        0.0275
@<TRIPOS>BOND
     1     1     2    1
     2     1     5    1
     3     1     6    1
     4     1     9    1
     5     2     3    1
     6     2     8    1
     7     2    10    1
     8     3     4    1
     9     3     7    1
    10     3    16    1
    11     4     5    1
    12     4    11    1
    13     4    12    1
    14     5    17    1
    15     5    18    1
    16     6     7    1
    17     6    19    1
    18     6    20    1
    19     7    21    1
    20     7    22    1
    21     8    13    1
    22     8    23    1
    23     8    24    1
    24     9    14    2
    25     9    15    1
    26    10    25    1
    27    10    26    1
    28    10    27    1
    29    11    28    1
    30    11    29    1
    31    11    30    1
    32    12    31    1
    33    12    32    1
    34    12    33    1
    35    13    14    1
    36    13    34    1
    37    13    35    1
    38    14    36    1
    39    15    37    1
    40    15    38    1
    41    15    39    1
