@<TRIPOS>MOLECULE
IMPHY004104
 22 23 0 0 0
SMALL
GASTEIGER

@<TRIPOS>ATOM
      1 O           6.2619    0.3776    0.0000 O.3     1  UNL1       -0.3909
      2 N           2.0000   -0.1224    0.0000 N.ar    1  UNL1       -0.2630
      3 C           4.6783   -0.4271    0.0000 C.3     1  UNL1        0.0093
      4 C           5.2619    0.3776    0.0000 C.3     1  UNL1        0.0658
      5 C           4.6783    1.1824    0.0000 C.3     1  UNL1       -0.0006
      6 C           3.7320   -0.1224    0.0000 C.ar    1  UNL1       -0.0207
      7 C           3.7320    0.8776    0.0000 C.ar    1  UNL1       -0.0385
      8 C           4.9889   -1.3776    0.0000 C.3     1  UNL1       -0.0560
      9 C           2.8660   -0.6224    0.0000 C.ar    1  UNL1        0.0313
     10 C           2.8660    1.3776    0.0000 C.ar    1  UNL1       -0.0401
     11 C           2.0000    0.8776    0.0000 C.ar    1  UNL1        0.0278
     12 H           5.2908   -0.5233    0.0000 H       1  UNL1        0.0372
     13 H           5.5436   -0.1747    0.0000 H       1  UNL1        0.0602
     14 H           5.2156    1.4916    0.0000 H       1  UNL1        0.0338
     15 H           4.4272    1.7493    0.0000 H       1  UNL1        0.0338
     16 H           4.3996   -1.5702    0.0000 H       1  UNL1        0.0236
     17 H           5.1815   -1.9670    0.0000 H       1  UNL1        0.0236
     18 H           5.5783   -1.1850    0.0000 H       1  UNL1        0.0236
     19 H           2.8660   -1.2424    0.0000 H       1  UNL1        0.0832
     20 H           2.8660    1.9976    0.0000 H       1  UNL1        0.0635
     21 H           6.5719    0.9146    0.0000 H       1  UNL1        0.2098
     22 H           1.4631    1.1876    0.0000 H       1  UNL1        0.0829
@<TRIPOS>BOND
     1     4     1    1
     2     1    21    1
     3     2     9   ar
     4     2    11   ar
     5     3     4    1
     6     3     6    1
     7     3     8    1
     8     3    12    1
     9     4     5    1
    10     4    13    1
    11     5     7    1
    12     5    14    1
    13     5    15    1
    14     6     7   ar
    15     6     9   ar
    16     7    10   ar
    17     8    16    1
    18     8    17    1
    19     8    18    1
    20     9    19    1
    21    10    11   ar
    22    10    20    1
    23    11    22    1
