@<TRIPOS>MOLECULE
IMPHY009021
 42 44 0 0 0
SMALL
GASTEIGER

@<TRIPOS>ATOM
      1 O           3.3021    2.6258    0.0000 O.3     1  UNL1       -0.3648
      2 O           3.0616    0.4237    0.0000 O.2     1  UNL1       -0.4896
      3 O           5.0446   -2.3714    0.0000 O.3     1  UNL1       -0.3888
      4 C           3.8021    1.0869    0.0000 C.3     1  UNL1        0.1495
      5 C           4.6111    1.6747    0.0000 C.3     1  UNL1        0.0341
      6 C           2.9931    1.6747    0.0000 C.3     1  UNL1        0.1278
      7 C           3.8950    0.0494    0.0000 C.3     1  UNL1       -0.0038
      8 C           4.8433   -0.3816    0.0000 C.3     1  UNL1       -0.0089
      9 C           5.5691    1.2658    0.0000 C.3     1  UNL1       -0.0414
     10 C           4.3021    2.6258    0.0000 C.3     1  UNL1        0.0581
     11 C           5.6860    0.2307    0.0000 C.3     1  UNL1       -0.0468
     12 C           5.4201    2.2625    0.0000 C.3     1  UNL1       -0.0537
     13 C           4.9440   -1.3765    0.0000 C.3     1  UNL1        0.0635
     14 C           2.0047    1.5682    0.0000 C.2     1  UNL1       -0.0147
     15 C           2.1840    2.2625    0.0000 C.3     1  UNL1       -0.0283
     16 C           2.0000    0.7586    0.0000 C.2     1  UNL1        0.0844
     17 C           5.9389   -1.2758    0.0000 C.3     1  UNL1       -0.0361
     18 C           3.9490   -1.4772    0.0000 C.3     1  UNL1       -0.0361
     19 H           3.2771    0.1006    0.0000 H       1  UNL1        0.0308
     20 H           3.7388   -0.5506    0.0000 H       1  UNL1        0.0308
     21 H           5.6191   -0.7288    0.0000 H       1  UNL1        0.0330
     22 H           6.1880    1.2289    0.0000 H       1  UNL1        0.0273
     23 H           5.7113    1.8692    0.0000 H       1  UNL1        0.0273
     24 H           4.9085    2.7547    0.0000 H       1  UNL1        0.0567
     25 H           4.2373    3.2424    0.0000 H       1  UNL1        0.0567
     26 H           5.9592   -0.3259    0.0000 H       1  UNL1        0.0269
     27 H           6.2810    0.4046    0.0000 H       1  UNL1        0.0269
     28 H           5.7845    1.7609    0.0000 H       1  UNL1        0.0237
     29 H           5.9217    2.6269    0.0000 H       1  UNL1        0.0237
     30 H           5.0557    2.7641    0.0000 H       1  UNL1        0.0237
     31 H           1.5446    1.9838    0.0000 H       1  UNL1        0.0632
     32 H           2.5485    2.7641    0.0000 H       1  UNL1        0.0262
     33 H           1.6824    2.6269    0.0000 H       1  UNL1        0.0262
     34 H           1.8196    1.7609    0.0000 H       1  UNL1        0.0262
     35 H           1.4989    0.3934    0.0000 H       1  UNL1        0.1021
     36 H           6.0013   -1.8926    0.0000 H       1  UNL1        0.0257
     37 H           6.5557   -1.2134    0.0000 H       1  UNL1        0.0257
     38 H           5.8764   -0.6589    0.0000 H       1  UNL1        0.0257
     39 H           3.8866   -0.8603    0.0000 H       1  UNL1        0.0257
     40 H           3.3322   -1.5396    0.0000 H       1  UNL1        0.0257
     41 H           4.0115   -2.0940    0.0000 H       1  UNL1        0.0257
     42 H           5.6101   -2.6258    0.0000 H       1  UNL1        0.2101
@<TRIPOS>BOND
     1     1     6    1
     2     1    10    1
     3     4     2    1
     4     2    16    1
     5     3    13    1
     6     3    42    1
     7     4     5    1
     8     4     6    1
     9     4     7    1
    10     5     9    1
    11     5    10    1
    12     5    12    1
    13     6    14    1
    14     6    15    1
    15     7     8    1
    16     7    19    1
    17     7    20    1
    18     8    11    1
    19     8    13    1
    20     8    21    1
    21     9    11    1
    22     9    22    1
    23     9    23    1
    24    10    24    1
    25    10    25    1
    26    11    26    1
    27    11    27    1
    28    12    28    1
    29    12    29    1
    30    12    30    1
    31    13    17    1
    32    13    18    1
    33    14    16    2
    34    14    31    1
    35    15    32    1
    36    15    33    1
    37    15    34    1
    38    16    35    1
    39    17    36    1
    40    17    37    1
    41    17    38    1
    42    18    39    1
    43    18    40    1
    44    18    41    1
