@<TRIPOS>MOLECULE
IMPHY011596
 28 30 0 0 0
SMALL
GASTEIGER

@<TRIPOS>ATOM
      1 O           6.4783   -0.7824    0.0000 O.2     1  UNL1       -0.4449
      2 O           4.6660    2.0223    0.0000 O.3     1  UNL1       -0.4937
      3 O           2.9176   -2.0123    0.0000 O.3     1  UNL1       -0.4930
      4 N           4.6660   -0.9777    0.0000 N.ar    1  UNL1       -0.2082
      5 C           3.8000    0.5223    0.0000 C.ar    1  UNL1        0.0464
      6 C           4.6660    1.0223    0.0000 C.ar    1  UNL1        0.1417
      7 C           3.8000   -0.4777    0.0000 C.ar    1  UNL1        0.1198
      8 C           5.5321    0.5223    0.0000 C.ar    1  UNL1        0.0820
      9 C           5.5321   -0.4777    0.0000 C.ar    1  UNL1        0.2312
     10 C           2.9061   -1.0124    0.0000 C.ar    1  UNL1        0.1461
     11 C           2.9061    1.0570    0.0000 C.ar    1  UNL1       -0.0488
     12 C           6.4783    0.8270    0.0000 C.ar    1  UNL1       -0.0109
     13 C           2.0000   -0.4985    0.0000 C.ar    1  UNL1       -0.0178
     14 C           2.0000    0.5431    0.0000 C.ar    1  UNL1       -0.0575
     15 C           7.0619    0.0223    0.0000 C.ar    1  UNL1        0.0952
     16 C           5.5321    2.5223    0.0000 C.3     1  UNL1        0.0788
     17 C           2.0574   -2.5223    0.0000 C.3     1  UNL1        0.0789
     18 H           2.9132    1.6769    0.0000 H       1  UNL1        0.0625
     19 H           6.6709    1.4163    0.0000 H       1  UNL1        0.0657
     20 H           1.4643   -0.8106    0.0000 H       1  UNL1        0.0655
     21 H           1.4643    0.8552    0.0000 H       1  UNL1        0.0619
     22 H           7.6819    0.0223    0.0000 H       1  UNL1        0.1030
     23 H           5.8421    1.9854    0.0000 H       1  UNL1        0.0660
     24 H           6.0690    2.8323    0.0000 H       1  UNL1        0.0660
     25 H           5.2221    3.0592    0.0000 H       1  UNL1        0.0660
     26 H           1.7413   -1.9890    0.0000 H       1  UNL1        0.0660
     27 H           1.5241   -2.8385    0.0000 H       1  UNL1        0.0660
     28 H           2.3736   -3.0556    0.0000 H       1  UNL1        0.0660
@<TRIPOS>BOND
     1     1     9   ar
     2     1    15   ar
     3     2     6    1
     4     2    16    1
     5     3    10    1
     6     3    17    1
     7     4     7   ar
     8     4     9   ar
     9     5     6   ar
    10     5     7   ar
    11     5    11   ar
    12     6     8   ar
    13     7    10   ar
    14     8     9   ar
    15     8    12   ar
    16    10    13   ar
    17    11    14   ar
    18    11    18    1
    19    12    15   ar
    20    12    19    1
    21    13    14   ar
    22    13    20    1
    23    14    21    1
    24    15    22    1
    25    16    23    1
    26    16    24    1
    27    16    25    1
    28    17    26    1
    29    17    27    1
    30    17    28    1
