@<TRIPOS>MOLECULE
IMPHY009065
 36 38 0 0 0
SMALL
GASTEIGER

@<TRIPOS>ATOM
      1 O           8.7098    0.8006    0.0000 O.3     1  UNL1       -0.4814
      2 O           5.1738    0.8284    0.0000 O.2     1  UNL1       -0.4472
      3 O           6.9338   -2.2063    0.0000 O.3     1  UNL1       -0.4942
      4 O           5.1854   -2.2409    0.0000 O.2     1  UNL1       -0.2869
      5 O           2.5357    0.3212    0.0000 O.3     1  UNL1       -0.4750
      6 O           3.4075    1.8179    0.0000 O.2     1  UNL1       -0.2417
      7 C           8.7179    1.8422    0.0000 C.3     1  UNL1        0.1235
      8 C           6.9338    0.7937    0.0000 C.ar    1  UNL1        0.0597
      9 C           7.7998    0.2937    0.0000 C.ar    1  UNL1        0.1359
     10 C           7.8158    2.3630    0.0000 C.2     1  UNL1       -0.0408
     11 C           6.0678    0.2937    0.0000 C.ar    1  UNL1        0.1537
     12 C           6.9178    1.8352    0.0000 C.2     1  UNL1       -0.0478
     13 C           9.2212    2.7063    0.0000 C.3     1  UNL1       -0.0215
     14 C           9.7179    1.8383    0.0000 C.3     1  UNL1       -0.0215
     15 C           6.0678   -0.7063    0.0000 C.ar    1  UNL1        0.1063
     16 C           7.7998   -0.7063    0.0000 C.ar    1  UNL1        0.0234
     17 C           6.9338   -1.2063    0.0000 C.ar    1  UNL1        0.1379
     18 C           5.1738   -1.2409    0.0000 C.ar    1  UNL1        0.1969
     19 C           4.2678    0.3145    0.0000 C.ar    1  UNL1        0.2155
     20 C           4.2678   -0.7271    0.0000 C.ar    1  UNL1        0.0354
     21 C           3.4037    0.8179    0.0000 C.2     1  UNL1        0.3726
     22 C           7.7998   -2.7063    0.0000 C.3     1  UNL1        0.0788
     23 H           7.8134    2.9830    0.0000 H       1  UNL1        0.0611
     24 H           6.3773    2.1390    0.0000 H       1  UNL1        0.0624
     25 H           9.7569    2.3942    0.0000 H       1  UNL1        0.0271
     26 H           9.5333    3.2420    0.0000 H       1  UNL1        0.0271
     27 H           9.7155    1.2183    0.0000 H       1  UNL1        0.0271
     28 H          10.3379    1.8359    0.0000 H       1  UNL1        0.0271
     29 H           9.7202    2.4583    0.0000 H       1  UNL1        0.0271
     30 H           8.6855    3.0183    0.0000 H       1  UNL1        0.0271
     31 H           8.3368   -1.0163    0.0000 H       1  UNL1        0.0691
     32 H           3.7320   -1.0392    0.0000 H       1  UNL1        0.0695
     33 H           7.4898   -3.2432    0.0000 H       1  UNL1        0.0660
     34 H           8.3368   -3.0163    0.0000 H       1  UNL1        0.0660
     35 H           8.1098   -2.1693    0.0000 H       1  UNL1        0.0660
     36 H           2.0000    0.6333    0.0000 H       1  UNL1        0.2955
@<TRIPOS>BOND
     1     1     7    1
     2     1     9    1
     3     2    11   ar
     4     2    19   ar
     5     3    17    1
     6     3    22    1
     7     4    18    2
     8     5    21    1
     9     5    36    1
    10     6    21    2
    11     7    10    1
    12     7    13    1
    13     7    14    1
    14     8     9   ar
    15     8    11   ar
    16     8    12    1
    17     9    16   ar
    18    10    12    2
    19    10    23    1
    20    11    15   ar
    21    12    24    1
    22    13    25    1
    23    13    26    1
    24    13    30    1
    25    14    27    1
    26    14    28    1
    27    14    29    1
    28    15    17   ar
    29    15    18   ar
    30    16    17   ar
    31    16    31    1
    32    18    20   ar
    33    19    20   ar
    34    19    21    1
    35    20    32    1
    36    22    33    1
    37    22    34    1
    38    22    35    1
