@<TRIPOS>MOLECULE
IMPHY004056
 40 41 0 0 0
SMALL
GASTEIGER

@<TRIPOS>ATOM
      1 O           4.2690    0.1550    0.0000 O.3     1  UNL1       -0.3405
      2 O           6.0010    0.1550    0.0000 O.3     1  UNL1       -0.3448
      3 O           6.0010   -1.8450    0.0000 O.3     1  UNL1       -0.3841
      4 O           4.2690   -2.8450    0.0000 O.3     1  UNL1       -0.3864
      5 O           2.5369   -1.8450    0.0000 O.3     1  UNL1       -0.3865
      6 O           6.0010    3.1550    0.0000 O.3     1  UNL1       -0.4615
      7 O           2.5369    1.1550    0.0000 O.3     1  UNL1       -0.3924
      8 O           7.7331    3.1550    0.0000 O.2     1  UNL1       -0.2507
      9 C           4.2690   -1.8450    0.0000 C.3     1  UNL1        0.1141
     10 C           5.1350   -1.3450    0.0000 C.3     1  UNL1        0.1341
     11 C           3.4030   -1.3450    0.0000 C.3     1  UNL1        0.1119
     12 C           5.1350   -0.3450    0.0000 C.3     1  UNL1        0.1882
     13 C           3.4030   -0.3450    0.0000 C.3     1  UNL1        0.1130
     14 C           6.0010    1.1550    0.0000 C.3     1  UNL1        0.0752
     15 C           5.1350    1.6550    0.0000 C.3     1  UNL1        0.0110
     16 C           6.8671    1.6550    0.0000 C.3     1  UNL1        0.0713
     17 C           5.1350    2.6550    0.0000 C.3     1  UNL1        0.1026
     18 C           2.5369    0.1550    0.0000 C.3     1  UNL1        0.0730
     19 C           6.8671    2.6550    0.0000 C.2     1  UNL1        0.3098
     20 C           4.2690    3.1550    0.0000 C.3     1  UNL1       -0.0276
     21 H           5.6720   -1.0350    0.0000 H       1  UNL1        0.0671
     22 H           4.8059   -2.1550    0.0000 H       1  UNL1        0.0648
     23 H           3.4030   -1.9650    0.0000 H       1  UNL1        0.0647
     24 H           5.1350    0.2750    0.0000 H       1  UNL1        0.0937
     25 H           3.4030    0.2750    0.0000 H       1  UNL1        0.0647
     26 H           6.5380    0.8450    0.0000 H       1  UNL1        0.0603
     27 H           4.5244    1.7627    0.0000 H       1  UNL1        0.0326
     28 H           4.9230    1.0724    0.0000 H       1  UNL1        0.0326
     29 H           7.0791    1.0724    0.0000 H       1  UNL1        0.0403
     30 H           7.4776    1.7627    0.0000 H       1  UNL1        0.0403
     31 H           5.1350    3.2750    0.0000 H       1  UNL1        0.0732
     32 H           1.9264    0.2627    0.0000 H       1  UNL1        0.0584
     33 H           2.3249   -0.4276    0.0000 H       1  UNL1        0.0584
     34 H           6.5380   -1.5350    0.0000 H       1  UNL1        0.2101
     35 H           3.7320   -3.1550    0.0000 H       1  UNL1        0.2100
     36 H           2.0000   -1.5350    0.0000 H       1  UNL1        0.2100
     37 H           4.5790    3.6919    0.0000 H       1  UNL1        0.0265
     38 H           3.7320    3.4650    0.0000 H       1  UNL1        0.0265
     39 H           3.9590    2.6181    0.0000 H       1  UNL1        0.0265
     40 H           2.0000    1.4650    0.0000 H       1  UNL1        0.2095
@<TRIPOS>BOND
     1     1    12    1
     2     1    13    1
     3    12     2    1
     4    14     2    1
     5    10     3    1
     6     3    34    1
     7     9     4    1
     8     4    35    1
     9    11     5    1
    10     5    36    1
    11     6    17    1
    12     6    19    1
    13     7    18    1
    14     7    40    1
    15     8    19    2
    16     9    10    1
    17     9    11    1
    18     9    22    1
    19    10    12    1
    20    10    21    1
    21    11    13    1
    22    11    23    1
    23    12    24    1
    24    13    18    1
    25    13    25    1
    26    14    15    1
    27    14    16    1
    28    14    26    1
    29    15    17    1
    30    15    27    1
    31    15    28    1
    32    16    19    1
    33    16    29    1
    34    16    30    1
    35    17    20    1
    36    17    31    1
    37    18    32    1
    38    18    33    1
    39    20    37    1
    40    20    38    1
    41    20    39    1
