@<TRIPOS>MOLECULE
IMPHY007555
 66 68 0 0 0
SMALL
GASTEIGER

@<TRIPOS>ATOM
      1 O           7.7857   -0.2307    0.0000 O.3     1  UNL1       -0.3362
      2 O           8.7857   -1.2307    0.0000 O.3     1  UNL1       -0.3125
      3 O           6.3177    2.0075    0.0000 O.3     1  UNL1       -0.3419
      4 O           4.5576    2.9043    0.0000 O.3     1  UNL1       -0.3363
      5 O           7.0536   -1.2307    0.0000 O.3     1  UNL1       -0.3404
      6 O          10.0458    1.0294    0.0000 O.3     1  UNL1       -0.3837
      7 O           8.2857    2.3082    0.0000 O.3     1  UNL1       -0.3864
      8 O           5.6454    0.5565    0.0000 O.3     1  UNL1       -0.3837
      9 O           3.4699    0.5565    0.0000 O.3     1  UNL1       -0.3864
     10 O          10.4799    0.1294    0.0000 O.3     1  UNL1       -0.3896
     11 O           8.7857   -3.2307    0.0000 O.3     1  UNL1       -0.3841
     12 O           7.0536   -4.2307    0.0000 O.3     1  UNL1       -0.3864
     13 O           5.3216   -3.2307    0.0000 O.3     1  UNL1       -0.3865
     14 O           5.5477    4.0391    0.0000 O.3     1  UNL1       -0.3896
     15 O           2.5897    3.6037    0.0000 O.3     1  UNL1       -0.3924
     16 O           4.4556   -1.7307    0.0000 O.3     1  UNL1       -0.3924
     17 C           8.7857   -0.2307    0.0000 C.3     1  UNL1        0.2252
     18 C           7.4767    0.7204    0.0000 C.3     1  UNL1        0.1138
     19 C           9.0947    0.7204    0.0000 C.3     1  UNL1        0.1395
     20 C           8.2857    1.3082    0.0000 C.3     1  UNL1        0.1145
     21 C           5.3667    2.3165    0.0000 C.3     1  UNL1        0.2230
     22 C           5.0576    1.3655    0.0000 C.3     1  UNL1        0.1394
     23 C           6.5256    1.0294    0.0000 C.3     1  UNL1        0.0799
     24 C           4.0576    1.3655    0.0000 C.3     1  UNL1        0.1145
     25 C           7.9197   -1.7307    0.0000 C.3     1  UNL1        0.1912
     26 C           3.7486    2.3165    0.0000 C.3     1  UNL1        0.1134
     27 C           9.7368   -0.5397    0.0000 C.3     1  UNL1        0.1009
     28 C           7.9197   -2.7307    0.0000 C.3     1  UNL1        0.1342
     29 C           7.0536   -3.2307    0.0000 C.3     1  UNL1        0.1141
     30 C           6.1876   -2.7307    0.0000 C.3     1  UNL1        0.1119
     31 C           6.1876   -1.7307    0.0000 C.3     1  UNL1        0.1130
     32 C           5.9544    3.1256    0.0000 C.3     1  UNL1        0.1008
     33 C           2.7976    2.6256    0.0000 C.3     1  UNL1        0.0730
     34 C           5.3216   -1.2307    0.0000 C.3     1  UNL1        0.0730
     35 H           7.0383    0.2820    0.0000 H       1  UNL1        0.0647
     36 H           9.5331    0.2820    0.0000 H       1  UNL1        0.0675
     37 H           7.7333    1.5896    0.0000 H       1  UNL1        0.0648
     38 H           4.7762    0.8131    0.0000 H       1  UNL1        0.0675
     39 H           5.9060    1.0077    0.0000 H       1  UNL1        0.0588
     40 H           6.4393    0.4154    0.0000 H       1  UNL1        0.0588
     41 H           3.4453    1.4625    0.0000 H       1  UNL1        0.0648
     42 H           7.9197   -1.1107    0.0000 H       1  UNL1        0.0939
     43 H           3.6516    2.9289    0.0000 H       1  UNL1        0.0647
     44 H           9.4457   -1.0871    0.0000 H       1  UNL1        0.0612
     45 H          10.2253   -0.9214    0.0000 H       1  UNL1        0.0612
     46 H           7.9197   -3.3507    0.0000 H       1  UNL1        0.0671
     47 H           6.5167   -3.5407    0.0000 H       1  UNL1        0.0648
     48 H           5.6507   -2.4207    0.0000 H       1  UNL1        0.0647
     49 H           6.1876   -1.1107    0.0000 H       1  UNL1        0.0647
     50 H           6.3851    2.6796    0.0000 H       1  UNL1        0.0612
     51 H           6.4684    3.4723    0.0000 H       1  UNL1        0.0612
     52 H          10.1747    1.6358    0.0000 H       1  UNL1        0.2101
     53 H           2.1779    2.6039    0.0000 H       1  UNL1        0.0584
     54 H           2.7113    2.0116    0.0000 H       1  UNL1        0.0584
     55 H           8.8226    2.6182    0.0000 H       1  UNL1        0.2100
     56 H           5.7201   -0.7557    0.0000 H       1  UNL1        0.0584
     57 H           4.9231   -0.7557    0.0000 H       1  UNL1        0.0584
     58 H           5.3932   -0.0099    0.0000 H       1  UNL1        0.2101
     59 H           2.8532    0.6213    0.0000 H       1  UNL1        0.2100
     60 H           8.7857   -3.8507    0.0000 H       1  UNL1        0.2101
     61 H          11.0696   -0.0622    0.0000 H       1  UNL1        0.2096
     62 H           6.5167   -4.5407    0.0000 H       1  UNL1        0.2100
     63 H           5.3216   -3.8507    0.0000 H       1  UNL1        0.2100
     64 H           5.9121    4.5407    0.0000 H       1  UNL1        0.2096
     65 H           2.0000    3.7953    0.0000 H       1  UNL1        0.2095
     66 H           3.9186   -1.4207    0.0000 H       1  UNL1        0.2095
@<TRIPOS>BOND
     1     1    17    1
     2     1    18    1
     3    17     2    1
     4    25     2    1
     5    21     3    1
     6     3    23    1
     7     4    21    1
     8     4    26    1
     9     5    25    1
    10     5    31    1
    11    19     6    1
    12     6    52    1
    13    20     7    1
    14     7    55    1
    15    22     8    1
    16     8    58    1
    17    24     9    1
    18     9    59    1
    19    10    27    1
    20    10    61    1
    21    28    11    1
    22    11    60    1
    23    29    12    1
    24    12    62    1
    25    30    13    1
    26    13    63    1
    27    14    32    1
    28    14    64    1
    29    15    33    1
    30    15    65    1
    31    16    34    1
    32    16    66    1
    33    17    19    1
    34    17    27    1
    35    18    20    1
    36    18    23    1
    37    18    35    1
    38    19    20    1
    39    19    36    1
    40    20    37    1
    41    21    22    1
    42    21    32    1
    43    22    24    1
    44    22    38    1
    45    23    39    1
    46    23    40    1
    47    24    26    1
    48    24    41    1
    49    25    28    1
    50    25    42    1
    51    26    33    1
    52    26    43    1
    53    27    44    1
    54    27    45    1
    55    28    29    1
    56    28    46    1
    57    29    30    1
    58    29    47    1
    59    30    31    1
    60    30    48    1
    61    31    34    1
    62    31    49    1
    63    32    50    1
    64    32    51    1
    65    33    53    1
    66    33    54    1
    67    34    56    1
    68    34    57    1
