@<TRIPOS>MOLECULE
IMPHY011537
 28 29 0 0 0
SMALL
GASTEIGER

@<TRIPOS>ATOM
      1 O           6.3981   -0.8343    0.0000 O.3     1  UNL1       -0.4815
      2 O           2.8680   -0.8585    0.0000 O.3     1  UNL1       -0.4950
      3 C           7.2641   -0.3343    0.0000 C.3     1  UNL1        0.1235
      4 C           7.2641    0.6657    0.0000 C.2     1  UNL1       -0.0409
      5 C           5.5320   -0.3343    0.0000 C.ar    1  UNL1        0.1323
      6 C           8.2641   -0.3343    0.0000 C.3     1  UNL1       -0.0215
      7 C           7.7641   -1.2003    0.0000 C.3     1  UNL1       -0.0215
      8 C           5.5320    0.6657    0.0000 C.ar    1  UNL1        0.0168
      9 C           6.3981    1.1657    0.0000 C.2     1  UNL1       -0.0513
     10 C           4.6381   -0.8690    0.0000 C.ar    1  UNL1        0.0224
     11 C           4.6381    1.2003    0.0000 C.ar    1  UNL1       -0.0477
     12 C           3.7320   -0.3551    0.0000 C.ar    1  UNL1        0.1236
     13 C           3.7320    0.6865    0.0000 C.ar    1  UNL1       -0.0192
     14 C           2.0000   -0.3618    0.0000 C.3     1  UNL1        0.0788
     15 H           7.8010    0.9757    0.0000 H       1  UNL1        0.0611
     16 H           7.2272   -1.5103    0.0000 H       1  UNL1        0.0271
     17 H           8.0741   -1.7373    0.0000 H       1  UNL1        0.0271
     18 H           8.3010   -0.8903    0.0000 H       1  UNL1        0.0271
     19 H           8.2641   -0.9543    0.0000 H       1  UNL1        0.0271
     20 H           8.8841   -0.3343    0.0000 H       1  UNL1        0.0271
     21 H           8.2641    0.2857    0.0000 H       1  UNL1        0.0271
     22 H           6.3981    1.7857    0.0000 H       1  UNL1        0.0623
     23 H           4.6453   -1.4889    0.0000 H       1  UNL1        0.0691
     24 H           4.6453    1.8203    0.0000 H       1  UNL1        0.0626
     25 H           3.1963    0.9986    0.0000 H       1  UNL1        0.0654
     26 H           2.3079    0.1763    0.0000 H       1  UNL1        0.0660
     27 H           1.4619   -0.0539    0.0000 H       1  UNL1        0.0660
     28 H           1.6921   -0.8999    0.0000 H       1  UNL1        0.0660
@<TRIPOS>BOND
     1     1     3    1
     2     1     5    1
     3     2    12    1
     4     2    14    1
     5     3     4    1
     6     3     6    1
     7     3     7    1
     8     4     9    2
     9     4    15    1
    10     5     8   ar
    11     5    10   ar
    12     6    19    1
    13     6    20    1
    14     6    21    1
    15     7    16    1
    16     7    17    1
    17     7    18    1
    18     8     9    1
    19     8    11   ar
    20     9    22    1
    21    10    12   ar
    22    10    23    1
    23    11    13   ar
    24    11    24    1
    25    12    13   ar
    26    13    25    1
    27    14    26    1
    28    14    27    1
    29    14    28    1
