@<TRIPOS>MOLECULE
IMPHY006042
 34 38 0 0 0
SMALL
GASTEIGER

@<TRIPOS>ATOM
      1 O           6.4642    0.0436    0.0000 O.3     1  UNL1       -0.4518
      2 O           6.4642    1.6531    0.0000 O.3     1  UNL1       -0.4489
      3 O           4.6520    2.8484    0.0000 O.3     1  UNL1       -0.4907
      4 O           2.0000   -1.6967    0.0000 O.2     1  UNL1       -0.2850
      5 N           2.0367    0.3697    0.0000 N.ar    1  UNL1       -0.2511
      6 C           4.6520   -0.1516    0.0000 C.ar    1  UNL1        0.0384
      7 C           3.7860    0.3484    0.0000 C.ar    1  UNL1        0.0262
      8 C           5.5180    0.3484    0.0000 C.ar    1  UNL1        0.1782
      9 C           3.7860    1.3484    0.0000 C.ar    1  UNL1        0.0318
     10 C           4.6681   -1.1932    0.0000 C.ar    1  UNL1       -0.0027
     11 C           2.8760   -0.1585    0.0000 C.ar    1  UNL1        0.1194
     12 C           5.5180    1.3484    0.0000 C.ar    1  UNL1        0.2088
     13 C           4.6520    1.8484    0.0000 C.ar    1  UNL1        0.1731
     14 C           3.7700   -1.7209    0.0000 C.ar    1  UNL1        0.0317
     15 C           2.8680   -1.2001    0.0000 C.2     1  UNL1        0.2124
     16 C           2.9278    1.8453    0.0000 C.ar    1  UNL1       -0.0322
     17 C           5.6200   -1.7138    0.0000 C.ar    1  UNL1       -0.0532
     18 C           7.0479    0.8484    0.0000 C.3     1  UNL1        0.2334
     19 C           3.7617   -2.8059    0.0000 C.ar    1  UNL1       -0.0503
     20 C           2.0623    1.3611    0.0000 C.ar    1  UNL1        0.0291
     21 C           5.6367   -2.7986    0.0000 C.ar    1  UNL1       -0.0611
     22 C           4.7013   -3.3484    0.0000 C.ar    1  UNL1       -0.0610
     23 C           5.5180    3.3484    0.0000 C.3     1  UNL1        0.0790
     24 H           2.9324    2.4653    0.0000 H       1  UNL1        0.0640
     25 H           6.1508   -1.3935    0.0000 H       1  UNL1        0.0624
     26 H           7.5087    0.4336    0.0000 H       1  UNL1        0.1166
     27 H           7.5087    1.2631    0.0000 H       1  UNL1        0.1166
     28 H           3.2235   -3.1138    0.0000 H       1  UNL1        0.0625
     29 H           1.5316    1.6816    0.0000 H       1  UNL1        0.0830
     30 H           6.1772   -3.1024    0.0000 H       1  UNL1        0.0618
     31 H           4.7037   -3.9684    0.0000 H       1  UNL1        0.0618
     32 H           5.8280    2.8114    0.0000 H       1  UNL1        0.0660
     33 H           6.0550    3.6584    0.0000 H       1  UNL1        0.0660
     34 H           5.2080    3.8853    0.0000 H       1  UNL1        0.0660
@<TRIPOS>BOND
     1     1     8    1
     2     1    18    1
     3     2    12    1
     4     2    18    1
     5     3    13    1
     6     3    23    1
     7     4    15    2
     8     5    11   ar
     9     5    20   ar
    10     6     7   ar
    11     6     8   ar
    12     6    10    1
    13     7     9   ar
    14     7    11   ar
    15     8    12   ar
    16     9    13   ar
    17     9    16   ar
    18    10    14   ar
    19    10    17   ar
    20    11    15    1
    21    12    13   ar
    22    14    15    1
    23    14    19   ar
    24    16    20   ar
    25    16    24    1
    26    17    21   ar
    27    17    25    1
    28    18    26    1
    29    18    27    1
    30    19    22   ar
    31    19    28    1
    32    20    29    1
    33    21    22   ar
    34    21    30    1
    35    22    31    1
    36    23    32    1
    37    23    33    1
    38    23    34    1
