@<TRIPOS>MOLECULE
IMPHY008672
 72 81 0 0 0
SMALL
GASTEIGER

@<TRIPOS>ATOM
      1 C          12.0432   11.2474    0.0000 C.3     1  UNL1        0.0025
      2 C          12.8844   11.5194    0.0000 C.3     1  UNL1        0.0320
      3 C          12.0432   10.3458    0.0000 C.3     1  UNL1        0.0028
      4 C          11.2625   11.6856    0.0000 C.3     1  UNL1        0.0001
      5 C          12.0382   12.2044    0.0000 C.3     1  UNL1        0.0001
      6 C          13.4133   10.7941    0.0000 C.3     1  UNL1        0.1177
      7 C          13.4133   12.2346    0.0000 C.3     1  UNL1        0.0539
      8 C          11.2625    9.9025    0.0000 C.3     1  UNL1        0.0047
      9 C          12.8844   10.0738    0.0000 C.3     1  UNL1        0.0297
     10 C          10.4868   11.2474    0.0000 C.3     1  UNL1        0.0003
     11 O          14.2494   11.0711    0.0000 O.3     1  UNL1       -0.3368
     12 C          14.2595   11.9526    0.0000 C.3     1  UNL1        0.1868
     13 C          13.0859   13.0506    0.0000 C.3     1  UNL1        0.0051
     14 C          10.4868   10.3458    0.0000 C.3     1  UNL1        0.0038
     15 C          11.2625    9.0060    0.0000 C.3     1  UNL1        0.0254
     16 O          14.9143   12.8592    0.0000 O.3     1  UNL1       -0.3343
     17 C          15.1762   12.3555    0.0000 C.3     1  UNL1        0.0563
     18 C           9.7111    9.9025    0.0000 C.3     1  UNL1        0.0150
     19 C          10.4868    8.5527    0.0000 C.2     1  UNL1       -0.0345
     20 C          15.9015   12.5519    0.0000 C.3     1  UNL1        0.1446
     21 C          16.1181   11.9526    0.0000 C.3     1  UNL1        0.0075
     22 C           9.7111    9.0060    0.0000 C.2     1  UNL1       -0.0467
     23 C           8.9355   10.3559    0.0000 C.3     1  UNL1        0.0062
     24 C           9.7111   10.8545    0.0000 C.3     1  UNL1        0.0040
     25 C          16.9391   13.0103    0.0000 C.3     1  UNL1        0.0299
     26 C           8.9355    8.5577    0.0000 C.3     1  UNL1        0.0513
     27 C           8.1547    9.9025    0.0000 C.3     1  UNL1        0.0303
     28 C          17.6291   12.3454    0.0000 C.3     1  UNL1        0.0026
     29 C           8.1547    9.0060    0.0000 C.3     1  UNL1        0.1219
     30 O           7.3690    8.6484    0.0000 O.3     1  UNL1       -0.3307
     31 C           6.6991    7.0416    0.0000 C.3     1  UNL1        0.2693
     32 C           6.0997    6.0896    0.0000 C.3     1  UNL1        0.2373
     33 O           6.0141    7.4899    0.0000 O.3     1  UNL1       -0.3257
     34 C           4.9613    6.0896    0.0000 C.3     1  UNL1        0.1827
     35 O           6.1198    5.1477    0.0000 O.3     1  UNL1       -0.2150
     36 C           5.0218    7.4899    0.0000 C.3     1  UNL1        0.1802
     37 C           4.3116    6.7394    0.0000 C.3     1  UNL1        0.1772
     38 O           4.9613    6.9408    0.0000 O.3     1  UNL1       -0.3256
     39 C           5.0218    8.4418    0.0000 C.3     1  UNL1        0.2141
     40 O           4.3116    5.6413    0.0000 O.3     1  UNL1       -0.3259
     41 C           6.3616    3.5913    0.0000 C.3     1  UNL1        0.2695
     42 O           5.7320    8.9455    0.0000 O.3     1  UNL1       -0.2176
     43 C           4.3116    4.5433    0.0000 C.3     1  UNL1        0.2693
     44 C           5.9687    2.6897    0.0000 C.3     1  UNL1        0.2406
     45 O           5.6464    4.2411    0.0000 O.3     1  UNL1       -0.3284
     46 C           3.5863    3.7424    0.0000 C.3     1  UNL1        0.2374
     47 O           3.4553    5.3441    0.0000 O.3     1  UNL1       -0.3284
     48 C           4.9160    2.6947    0.0000 C.3     1  UNL1        0.2197
     49 O           5.9687    1.7931    0.0000 O.3     1  UNL1       -0.2149
     50 C           4.7246    4.2411    0.0000 C.3     1  UNL1        0.1508
     51 C           2.4630    3.7424    0.0000 C.3     1  UNL1        0.1857
     52 O           3.6064    2.7904    0.0000 O.3     1  UNL1       -0.2150
     53 C           2.4227    5.3441    0.0000 C.3     1  UNL1        0.1507
     54 C           4.3368    3.3949    0.0000 C.3     1  UNL1        0.2118
     55 O           4.9160    1.7931    0.0000 O.3     1  UNL1       -0.2174
     56 C           4.7448    3.3949    0.0000 C.3     1  UNL1        0.0350
     57 C           1.6672    4.4425    0.0000 C.3     1  UNL1        0.2086
     58 O           2.4630    2.7904    0.0000 O.3     1  UNL1       -0.3255
     59 C           2.4227    4.3468    0.0000 C.3     1  UNL1        0.0350
     60 O           4.3368    4.0950    0.0000 O.3     1  UNL1       -0.2177
     61 O           1.6471    5.4953    0.0000 O.3     1  UNL1       -0.2178
     62 C           2.4630    1.7931    0.0000 C.3     1  UNL1        0.2695
     63 C           1.8637    0.8915    0.0000 C.3     1  UNL1        0.2406
     64 O           1.7377    2.2968    0.0000 O.3     1  UNL1       -0.3256
     65 C           0.7455    0.8915    0.0000 C.3     1  UNL1        0.2198
     66 O           1.8637    0.0000    0.0000 O.3     1  UNL1       -0.2149
     67 C           0.6145    2.2968    0.0000 C.3     1  UNL1        0.1835
     68 C           0.0000    1.5866    0.0000 C.3     1  UNL1        0.2144
     69 O           0.7455    1.6924    0.0000 O.3     1  UNL1       -0.2174
     70 C           0.5944    3.2941    0.0000 C.3     1  UNL1        0.2142
     71 O           0.0151    0.5893    0.0000 O.3     1  UNL1       -0.2176
     72 O           1.2391    3.7928    0.0000 O.3     1  UNL1       -0.2176
@<TRIPOS>BOND
     1     1     2    1
     2     1     3    1
     3     1     4    1
     4     1     5    1
     5     2     6    1
     6     2     7    1
     7     3     8    1
     8     3     9    1
     9     4    10    1
    10     6     9    1
    11     6    11    1
    12     7    12    1
    13     7    13    1
    14     8    14    1
    15     8    15    1
    16    12    11    1
    17    12    16    1
    18    12    17    1
    19    14    10    1
    20    14    18    1
    21    15    19    1
    22    16    20    1
    23    17    21    1
    24    18    22    1
    25    18    23    1
    26    18    24    1
    27    19    22    2
    28    20    25    1
    29    21    25    1
    30    22    26    1
    31    23    27    1
    32    25    28    1
    33    26    29    1
    34    27    29    1
    35    29    30    1
    36    31    30    1
    37    31    32    1
    38    31    33    1
    39    32    34    1
    40    32    35    1
    41    33    36    1
    42    34    37    1
    43    34    38    1
    44    36    37    1
    45    36    39    1
    46    37    40    1
    47    39    42    1
    48    41    38    1
    49    41    44    1
    50    41    45    1
    51    43    40    1
    52    43    46    1
    53    43    47    1
    54    44    48    1
    55    44    49    1
    56    45    50    1
    57    46    51    1
    58    46    52    1
    59    47    53    1
    60    48    54    1
    61    48    55    1
    62    50    54    1
    63    50    56    1
    64    51    57    1
    65    51    58    1
    66    53    57    1
    67    53    59    1
    68    54    60    1
    69    57    61    1
    70    62    58    1
    71    62    63    1
    72    62    64    1
    73    63    65    1
    74    63    66    1
    75    64    67    1
    76    65    68    1
    77    65    69    1
    78    67    68    1
    79    67    70    1
    80    68    71    1
    81    70    72    1
