@<TRIPOS>MOLECULE
IMPHY017744
 23 23 0 0 0
SMALL
GASTEIGER

@<TRIPOS>ATOM
      1 N           6.3301   -1.0000    0.0000 N.ar    1  UNL1       -0.2599
      2 C           3.7320   -0.5000    0.0000 C.3     1  UNL1       -0.0479
      3 C           4.5981   -1.0000    0.0000 C.3     1  UNL1       -0.0104
      4 C           2.8660   -1.0000    0.0000 C.3     1  UNL1       -0.0556
      5 C           5.4641   -0.5000    0.0000 C.ar    1  UNL1        0.0413
      6 C           2.0000   -0.5000    0.0000 C.3     1  UNL1       -0.0653
      7 C           5.4641    0.5000    0.0000 C.ar    1  UNL1       -0.0404
      8 C           6.3301    1.0000    0.0000 C.ar    1  UNL1       -0.0586
      9 C           7.1962   -0.5000    0.0000 C.ar    1  UNL1        0.0279
     10 C           7.1962    0.5000    0.0000 C.ar    1  UNL1       -0.0436
     11 H           4.1306   -0.0251    0.0000 H       1  UNL1        0.0269
     12 H           3.3335   -0.0251    0.0000 H       1  UNL1        0.0269
     13 H           4.1996   -1.4750    0.0000 H       1  UNL1        0.0328
     14 H           4.9966   -1.4750    0.0000 H       1  UNL1        0.0328
     15 H           2.4675   -1.4750    0.0000 H       1  UNL1        0.0263
     16 H           3.2646   -1.4750    0.0000 H       1  UNL1        0.0263
     17 H           2.3100    0.0369    0.0000 H       1  UNL1        0.0230
     18 H           1.4631   -0.1900    0.0000 H       1  UNL1        0.0230
     19 H           1.6900   -1.0369    0.0000 H       1  UNL1        0.0230
     20 H           4.9272    0.8100    0.0000 H       1  UNL1        0.0635
     21 H           6.3301    1.6200    0.0000 H       1  UNL1        0.0619
     22 H           7.7331   -0.8100    0.0000 H       1  UNL1        0.0829
     23 H           7.7331    0.8100    0.0000 H       1  UNL1        0.0633
@<TRIPOS>BOND
     1     1     5   ar
     2     1     9   ar
     3     2     3    1
     4     2     4    1
     5     2    11    1
     6     2    12    1
     7     3     5    1
     8     3    13    1
     9     3    14    1
    10     4     6    1
    11     4    15    1
    12     4    16    1
    13     5     7   ar
    14     6    17    1
    15     6    18    1
    16     6    19    1
    17     7     8   ar
    18     7    20    1
    19     8    10   ar
    20     8    21    1
    21     9    10   ar
    22     9    22    1
    23    10    23    1
