@<TRIPOS>MOLECULE
IMPHY006693
 135 143 0 0 0
SMALL
GASTEIGER

@<TRIPOS>ATOM
      1 O          10.8882    3.7325    0.0000 O.3     1  UNL1       -0.3448
      2 O          10.7717    4.8946    0.0000 O.3     1  UNL1       -0.3399
      3 O           9.4651   -4.5116    0.0000 O.3     1  UNL1       -0.3451
      4 O           9.3400    7.2052    0.0000 O.3     1  UNL1       -0.3922
      5 O           7.7331   -4.5116    0.0000 O.3     1  UNL1       -0.3405
      6 O           9.4651   -6.5116    0.0000 O.3     1  UNL1       -0.3378
      7 O           7.7331   -7.5116    0.0000 O.3     1  UNL1       -0.3864
      8 O           6.0010   -6.5116    0.0000 O.3     1  UNL1       -0.3401
      9 O          10.3312   -5.0116    0.0000 O.3     1  UNL1       -0.3431
     10 O           6.0010   -3.5116    0.0000 O.3     1  UNL1       -0.3924
     11 O           5.1350   -5.0116    0.0000 O.3     1  UNL1       -0.3405
     12 O          11.1972   -7.5116    0.0000 O.3     1  UNL1       -0.3841
     13 O          12.9292   -6.5116    0.0000 O.3     1  UNL1       -0.3864
     14 O           4.2690   -7.5116    0.0000 O.3     1  UNL1       -0.3841
     15 O          12.9292   -4.5116    0.0000 O.3     1  UNL1       -0.3866
     16 O           2.5369   -6.5116    0.0000 O.3     1  UNL1       -0.3864
     17 O           2.5369   -4.5116    0.0000 O.3     1  UNL1       -0.3865
     18 O           3.4030   -3.0116    0.0000 O.3     1  UNL1       -0.3924
     19 C           9.4944    1.6853    0.0000 C.3     1  UNL1       -0.0233
     20 C          10.3623    1.1886    0.0000 C.3     1  UNL1       -0.0295
     21 C           9.6999    2.6579    0.0000 C.3     1  UNL1       -0.0015
     22 C          10.3662    0.1886    0.0000 C.3     1  UNL1       -0.0306
     23 C          10.6882    2.7648    0.0000 C.3     1  UNL1        0.0660
     24 C           9.5021   -0.3147    0.0000 C.3     1  UNL1       -0.0285
     25 C          11.0968    1.8586    0.0000 C.3     1  UNL1       -0.0226
     26 C           9.2976    3.5605    0.0000 C.3     1  UNL1        0.0160
     27 C           8.6303    1.1820    0.0000 C.3     1  UNL1       -0.0467
     28 C          10.0305    4.2233    0.0000 C.3     1  UNL1        0.1741
     29 C           8.6342    0.1820    0.0000 C.3     1  UNL1       -0.0486
     30 C           9.4901   -1.3563    0.0000 C.3     1  UNL1       -0.0078
     31 C           8.6264    2.1820    0.0000 C.3     1  UNL1       -0.0590
     32 C          11.2781   -0.3147    0.0000 C.3     1  UNL1       -0.0311
     33 C          10.3901   -1.8806    0.0000 C.2     1  UNL1       -0.0648
     34 C           9.1630    4.7207    0.0000 C.3     1  UNL1        0.0044
     35 C           8.5402   -1.8806    0.0000 C.3     1  UNL1       -0.0413
     36 C           8.3192    3.7672    0.0000 C.3     1  UNL1       -0.0572
     37 C          11.2902   -1.3563    0.0000 C.2     1  UNL1       -0.0839
     38 C           8.6260   -0.8529    0.0000 C.3     1  UNL1       -0.0556
     39 C          10.3622    5.8070    0.0000 C.3     1  UNL1        0.0931
     40 C           9.3680    5.6995    0.0000 C.3     1  UNL1       -0.0169
     41 C          10.4027   -2.9655    0.0000 C.3     1  UNL1       -0.0047
     42 C           8.5276   -2.9655    0.0000 C.3     1  UNL1       -0.0254
     43 C           9.4651   -3.5116    0.0000 C.3     1  UNL1        0.0655
     44 C          10.2547    6.8012    0.0000 C.3     1  UNL1        0.0731
     45 C          11.2745    6.2164    0.0000 C.3     1  UNL1       -0.0335
     46 C           8.5991   -5.0116    0.0000 C.3     1  UNL1        0.1886
     47 C           8.5991   -6.0116    0.0000 C.3     1  UNL1        0.1406
     48 C           7.7331   -6.5116    0.0000 C.3     1  UNL1        0.1148
     49 C           6.8671   -5.0116    0.0000 C.3     1  UNL1        0.1134
     50 C           6.8671   -6.0116    0.0000 C.3     1  UNL1        0.1184
     51 C           6.0010   -4.5116    0.0000 C.3     1  UNL1        0.0730
     52 C          10.3312   -6.0116    0.0000 C.3     1  UNL1        0.1884
     53 C          11.1972   -6.5116    0.0000 C.3     1  UNL1        0.1341
     54 C           5.1350   -6.0116    0.0000 C.3     1  UNL1        0.1884
     55 C          12.0632   -6.0116    0.0000 C.3     1  UNL1        0.1140
     56 C          11.1972   -4.5116    0.0000 C.3     1  UNL1        0.0873
     57 C           4.2690   -6.5116    0.0000 C.3     1  UNL1        0.1341
     58 C          12.0632   -5.0116    0.0000 C.3     1  UNL1        0.1095
     59 C           3.4030   -6.0116    0.0000 C.3     1  UNL1        0.1141
     60 C           4.2690   -4.5116    0.0000 C.3     1  UNL1        0.1130
     61 C           3.4030   -5.0116    0.0000 C.3     1  UNL1        0.1119
     62 C          11.1972   -3.5116    0.0000 C.3     1  UNL1       -0.0361
     63 C           4.2690   -3.5116    0.0000 C.3     1  UNL1        0.0730
     64 H          11.1406    0.8469    0.0000 H       1  UNL1        0.0310
     65 H           8.8546    2.5684    0.0000 H       1  UNL1        0.0335
     66 H          11.0974    0.6221    0.0000 H       1  UNL1        0.0310
     67 H          11.5330    2.8580    0.0000 H       1  UNL1        0.0600
     68 H          10.2366   -0.7425    0.0000 H       1  UNL1        0.0312
     69 H          11.4642    1.3591    0.0000 H       1  UNL1        0.0293
     70 H          11.6321    2.1714    0.0000 H       1  UNL1        0.0293
     71 H           8.9078    3.0784    0.0000 H       1  UNL1        0.0354
     72 H           8.4160    1.7637    0.0000 H       1  UNL1        0.0271
     73 H           8.0201    1.0719    0.0000 H       1  UNL1        0.0271
     74 H           8.0232    0.2873    0.0000 H       1  UNL1        0.0268
     75 H           8.4244   -0.4015    0.0000 H       1  UNL1        0.0268
     76 H           8.9344    2.7201    0.0000 H       1  UNL1        0.0235
     77 H           8.0883    2.4899    0.0000 H       1  UNL1        0.0235
     78 H           8.3185    1.6438    0.0000 H       1  UNL1        0.0235
     79 H          11.8902   -0.4137    0.0000 H       1  UNL1        0.0310
     80 H          11.4804    0.2714    0.0000 H       1  UNL1        0.0310
     81 H           8.5728    4.9105    0.0000 H       1  UNL1        0.0318
     82 H           8.9125    4.1536    0.0000 H       1  UNL1        0.0318
     83 H           8.3379   -1.2945    0.0000 H       1  UNL1        0.0274
     84 H           7.9281   -1.9796    0.0000 H       1  UNL1        0.0274
     85 H           8.4473    4.3738    0.0000 H       1  UNL1        0.0234
     86 H           7.7125    3.8953    0.0000 H       1  UNL1        0.0234
     87 H           8.1910    3.1606    0.0000 H       1  UNL1        0.0234
     88 H          11.8295   -1.6621    0.0000 H       1  UNL1        0.0572
     89 H           8.9380   -0.3172    0.0000 H       1  UNL1        0.0238
     90 H           8.0902   -0.5409    0.0000 H       1  UNL1        0.0238
     91 H           8.3139   -1.3887    0.0000 H       1  UNL1        0.0238
     92 H           9.3662    6.3195    0.0000 H       1  UNL1        0.0295
     93 H           8.7512    5.7624    0.0000 H       1  UNL1        0.0295
     94 H          10.6185   -3.5467    0.0000 H       1  UNL1        0.0335
     95 H          11.0123   -2.8523    0.0000 H       1  UNL1        0.0335
     96 H           7.9180   -2.8523    0.0000 H       1  UNL1        0.0290
     97 H           8.3118   -3.5467    0.0000 H       1  UNL1        0.0290
     98 H          10.0027   -3.8206    0.0000 H       1  UNL1        0.0600
     99 H          10.8733    6.7598    0.0000 H       1  UNL1        0.0586
    100 H          10.4029    7.4032    0.0000 H       1  UNL1        0.0586
    101 H          11.5284    5.6508    0.0000 H       1  UNL1        0.0258
    102 H          11.8402    6.4703    0.0000 H       1  UNL1        0.0258
    103 H          11.0207    6.7821    0.0000 H       1  UNL1        0.0258
    104 H           8.5991   -4.3916    0.0000 H       1  UNL1        0.0938
    105 H           9.2733    7.8216    0.0000 H       1  UNL1        0.2095
    106 H           8.5991   -6.6316    0.0000 H       1  UNL1        0.0675
    107 H           7.1962   -6.8216    0.0000 H       1  UNL1        0.0648
    108 H           6.8671   -4.3916    0.0000 H       1  UNL1        0.0647
    109 H           6.3301   -5.7016    0.0000 H       1  UNL1        0.0651
    110 H           5.3905   -4.4039    0.0000 H       1  UNL1        0.0584
    111 H           5.7890   -5.0942    0.0000 H       1  UNL1        0.0584
    112 H           9.7942   -5.7016    0.0000 H       1  UNL1        0.0938
    113 H           7.1962   -7.8216    0.0000 H       1  UNL1        0.2100
    114 H          11.7341   -6.8216    0.0000 H       1  UNL1        0.0671
    115 H           5.1350   -6.6316    0.0000 H       1  UNL1        0.0938
    116 H           5.4641   -3.2016    0.0000 H       1  UNL1        0.2095
    117 H          12.6002   -5.7016    0.0000 H       1  UNL1        0.0648
    118 H          10.6603   -4.2016    0.0000 H       1  UNL1        0.0621
    119 H           3.7320   -6.8216    0.0000 H       1  UNL1        0.0671
    120 H          12.0632   -4.3916    0.0000 H       1  UNL1        0.0646
    121 H           2.8660   -5.7016    0.0000 H       1  UNL1        0.0648
    122 H          11.7341   -7.8216    0.0000 H       1  UNL1        0.2101
    123 H           4.8059   -4.2016    0.0000 H       1  UNL1        0.0647
    124 H           3.4030   -4.3916    0.0000 H       1  UNL1        0.0647
    125 H          11.8172   -3.5116    0.0000 H       1  UNL1        0.0255
    126 H          11.1972   -2.8916    0.0000 H       1  UNL1        0.0255
    127 H          10.5772   -3.5116    0.0000 H       1  UNL1        0.0255
    128 H          13.4662   -6.2016    0.0000 H       1  UNL1        0.2100
    129 H           3.7320   -7.8216    0.0000 H       1  UNL1        0.2101
    130 H          13.4662   -4.8216    0.0000 H       1  UNL1        0.2100
    131 H           4.8796   -3.6192    0.0000 H       1  UNL1        0.0584
    132 H           4.4810   -2.9290    0.0000 H       1  UNL1        0.0584
    133 H           2.0000   -6.2016    0.0000 H       1  UNL1        0.2100
    134 H           2.5369   -3.8916    0.0000 H       1  UNL1        0.2100
    135 H           3.4030   -2.3916    0.0000 H       1  UNL1        0.2095
@<TRIPOS>BOND
     1     1    23    1
     2    28     1    1
     3     2    28    1
     4     2    39    1
     5    43     3    1
     6    46     3    1
     7     4    44    1
     8     4   105    1
     9     5    46    1
    10     5    49    1
    11    47     6    1
    12    52     6    1
    13    48     7    1
    14     7   113    1
    15    50     8    1
    16    54     8    1
    17     9    52    1
    18     9    56    1
    19    10    51    1
    20    10   116    1
    21    11    54    1
    22    11    60    1
    23    53    12    1
    24    12   122    1
    25    55    13    1
    26    13   128    1
    27    57    14    1
    28    14   129    1
    29    58    15    1
    30    15   130    1
    31    59    16    1
    32    16   133    1
    33    61    17    1
    34    17   134    1
    35    18    63    1
    36    18   135    1
    37    19    20    1
    38    19    21    1
    39    19    27    1
    40    19    31    1
    41    20    22    1
    42    20    25    1
    43    20    64    1
    44    21    23    1
    45    21    26    1
    46    21    65    1
    47    22    24    1
    48    22    32    1
    49    22    66    1
    50    23    25    1
    51    23    67    1
    52    24    29    1
    53    24    30    1
    54    24    68    1
    55    25    69    1
    56    25    70    1
    57    26    28    1
    58    26    36    1
    59    26    71    1
    60    27    29    1
    61    27    72    1
    62    27    73    1
    63    28    34    1
    64    29    74    1
    65    29    75    1
    66    30    33    1
    67    30    35    1
    68    30    38    1
    69    31    76    1
    70    31    77    1
    71    31    78    1
    72    32    37    1
    73    32    79    1
    74    32    80    1
    75    33    37    2
    76    33    41    1
    77    34    40    1
    78    34    81    1
    79    34    82    1
    80    35    42    1
    81    35    83    1
    82    35    84    1
    83    36    85    1
    84    36    86    1
    85    36    87    1
    86    37    88    1
    87    38    89    1
    88    38    90    1
    89    38    91    1
    90    39    40    1
    91    39    44    1
    92    39    45    1
    93    40    92    1
    94    40    93    1
    95    41    43    1
    96    41    94    1
    97    41    95    1
    98    42    43    1
    99    42    96    1
   100    42    97    1
   101    43    98    1
   102    44    99    1
   103    44   100    1
   104    45   101    1
   105    45   102    1
   106    45   103    1
   107    46    47    1
   108    46   104    1
   109    47    48    1
   110    47   106    1
   111    48    50    1
   112    48   107    1
   113    49    50    1
   114    49    51    1
   115    49   108    1
   116    50   109    1
   117    51   110    1
   118    51   111    1
   119    52    53    1
   120    52   112    1
   121    53    55    1
   122    53   114    1
   123    54    57    1
   124    54   115    1
   125    55    58    1
   126    55   117    1
   127    56    58    1
   128    56    62    1
   129    56   118    1
   130    57    59    1
   131    57   119    1
   132    58   120    1
   133    59    61    1
   134    59   121    1
   135    60    61    1
   136    60    63    1
   137    60   123    1
   138    61   124    1
   139    62   125    1
   140    62   126    1
   141    62   127    1
   142    63   131    1
   143    63   132    1
