@<TRIPOS>MOLECULE
IMPHY005218
 77 82 0 0 0
SMALL
GASTEIGER

@<TRIPOS>ATOM
      1 O          10.4645    0.2316    0.0000 O.3     1  UNL1       -0.4768
      2 O          10.4722   -1.7684    0.0000 O.3     1  UNL1       -0.4788
      3 O          12.2081   -2.7617    0.0000 O.3     1  UNL1       -0.3912
      4 O          13.0529    2.7416    0.0000 O.3     1  UNL1       -0.4914
      5 O          14.7888    1.7483    0.0000 O.3     1  UNL1       -0.5029
      6 O           6.0682   -0.2578    0.0000 O.2     1  UNL1       -0.4544
      7 O          15.6683   -1.7483    0.0000 O.3     1  UNL1       -0.3904
      8 O           6.0682    2.7422    0.0000 O.2     1  UNL1       -0.2869
      9 O           4.3198    2.7768    0.0000 O.3     1  UNL1       -0.5058
     10 O          17.4042   -2.7416    0.0000 O.3     1  UNL1       -0.4914
     11 O           2.5381   -0.2820    0.0000 O.3     1  UNL1       -0.5065
     12 O          19.1324   -1.7350    0.0000 O.3     1  UNL1       -0.5033
     13 C          11.3324   -0.2650    0.0000 C.3     1  UNL1        0.1642
     14 C          11.3363   -1.2650    0.0000 C.3     1  UNL1        0.1639
     15 C          12.1965    0.2383    0.0000 C.ar    1  UNL1        0.0006
     16 C          12.2042   -1.7617    0.0000 C.3     1  UNL1        0.0850
     17 C           9.6004   -0.2717    0.0000 C.ar    1  UNL1        0.1637
     18 C           9.6042   -1.2717    0.0000 C.ar    1  UNL1        0.1627
     19 C          13.0645   -0.2583    0.0000 C.ar    1  UNL1       -0.0437
     20 C          12.1927    1.2383    0.0000 C.ar    1  UNL1       -0.0095
     21 C          13.9285    0.2450    0.0000 C.ar    1  UNL1        0.0258
     22 C           8.7044    0.2595    0.0000 C.ar    1  UNL1       -0.0056
     23 C          13.0567    1.7416    0.0000 C.ar    1  UNL1        0.1622
     24 C           8.7124   -1.8098    0.0000 C.ar    1  UNL1       -0.0156
     25 C           7.8003   -0.2578    0.0000 C.ar    1  UNL1        0.0211
     26 C          13.9247    1.2450    0.0000 C.ar    1  UNL1        0.1661
     27 C           7.8043   -1.2994    0.0000 C.ar    1  UNL1       -0.0474
     28 C          14.7965   -0.2517    0.0000 C.2     1  UNL1       -0.0109
     29 C           6.9343    0.2422    0.0000 C.ar    1  UNL1        0.1393
     30 C          14.8003   -1.2517    0.0000 C.3     1  UNL1        0.0699
     31 C          15.6606    0.2517    0.0000 C.2     1  UNL1       -0.0484
     32 C           6.9343    1.2422    0.0000 C.ar    1  UNL1        0.0288
     33 C           5.2022    0.2422    0.0000 C.ar    1  UNL1        0.1462
     34 C           5.2022    1.2422    0.0000 C.ar    1  UNL1        0.1055
     35 C          16.5285   -0.2450    0.0000 C.ar    1  UNL1       -0.0210
     36 C           6.0682    1.7422    0.0000 C.ar    1  UNL1        0.1966
     37 C          12.1849    3.2383    0.0000 C.3     1  UNL1        0.0790
     38 C           4.3083    1.7768    0.0000 C.ar    1  UNL1        0.1347
     39 C           4.3083   -0.2925    0.0000 C.ar    1  UNL1        0.0231
     40 C          16.5324   -1.2450    0.0000 C.ar    1  UNL1       -0.0091
     41 C          17.3926    0.2583    0.0000 C.ar    1  UNL1       -0.0509
     42 C           3.4022    0.2214    0.0000 C.ar    1  UNL1        0.1239
     43 C           3.4022    1.2630    0.0000 C.ar    1  UNL1        0.0223
     44 C          17.4003   -1.7416    0.0000 C.ar    1  UNL1        0.1618
     45 C          18.2606   -0.2383    0.0000 C.ar    1  UNL1       -0.0160
     46 C          18.2644   -1.2383    0.0000 C.ar    1  UNL1        0.1585
     47 C          18.2721   -3.2383    0.0000 C.3     1  UNL1        0.0790
     48 H          11.8705   -0.5729    0.0000 H       1  UNL1        0.0823
     49 H          11.3387   -1.8850    0.0000 H       1  UNL1        0.0798
     50 H          12.8152   -1.8670    0.0000 H       1  UNL1        0.0595
     51 H          12.4140   -1.1782    0.0000 H       1  UNL1        0.0595
     52 H          13.0668   -0.8783    0.0000 H       1  UNL1        0.0629
     53 H          11.6545    1.5462    0.0000 H       1  UNL1        0.0659
     54 H           8.7092    0.8795    0.0000 H       1  UNL1        0.0662
     55 H           8.7219   -2.4297    0.0000 H       1  UNL1        0.0655
     56 H           7.2698   -1.6136    0.0000 H       1  UNL1        0.0626
     57 H          12.7462   -3.0696    0.0000 H       1  UNL1        0.2096
     58 H          14.1894   -1.1464    0.0000 H       1  UNL1        0.0607
     59 H          14.5905   -1.8351    0.0000 H       1  UNL1        0.0607
     60 H          15.6582    0.8717    0.0000 H       1  UNL1        0.0627
     61 H           7.4712    1.5522    0.0000 H       1  UNL1        0.0693
     62 H          14.7864    2.3683    0.0000 H       1  UNL1        0.2923
     63 H          12.4929    3.7764    0.0000 H       1  UNL1        0.0660
     64 H          11.6468    3.5462    0.0000 H       1  UNL1        0.0660
     65 H          11.8770    2.7002    0.0000 H       1  UNL1        0.0660
     66 H           4.3154   -0.9124    0.0000 H       1  UNL1        0.0691
     67 H          15.9966   -1.5570    0.0000 H       1  UNL1        0.0661
     68 H          17.3902    0.8783    0.0000 H       1  UNL1        0.0625
     69 H          15.6707   -2.3683    0.0000 H       1  UNL1        0.2098
     70 H           2.8665    1.5751    0.0000 H       1  UNL1        0.0691
     71 H          18.7963    0.0738    0.0000 H       1  UNL1        0.0655
     72 H           3.7865    3.0930    0.0000 H       1  UNL1        0.2922
     73 H           2.0000    0.0260    0.0000 H       1  UNL1        0.2921
     74 H          19.6681   -1.4229    0.0000 H       1  UNL1        0.2923
     75 H          17.9642   -3.7764    0.0000 H       1  UNL1        0.0660
     76 H          18.8103   -3.5462    0.0000 H       1  UNL1        0.0660
     77 H          18.5801   -2.7002    0.0000 H       1  UNL1        0.0660
@<TRIPOS>BOND
     1     1    13    1
     2     1    17    1
     3     2    14    1
     4     2    18    1
     5     3    16    1
     6     3    57    1
     7     4    23    1
     8     4    37    1
     9     5    26    1
    10     5    62    1
    11     6    29   ar
    12     6    33   ar
    13     7    30    1
    14     7    69    1
    15     8    36    2
    16     9    38    1
    17     9    72    1
    18    10    44    1
    19    10    47    1
    20    11    42    1
    21    11    73    1
    22    12    46    1
    23    12    74    1
    24    13    14    1
    25    13    15    1
    26    13    48    1
    27    14    16    1
    28    14    49    1
    29    15    19   ar
    30    15    20   ar
    31    16    50    1
    32    16    51    1
    33    17    18   ar
    34    17    22   ar
    35    18    24   ar
    36    19    21   ar
    37    19    52    1
    38    20    23   ar
    39    20    53    1
    40    21    26   ar
    41    21    28    1
    42    22    25   ar
    43    22    54    1
    44    23    26   ar
    45    24    27   ar
    46    24    55    1
    47    25    27   ar
    48    25    29    1
    49    27    56    1
    50    28    30    1
    51    28    31    2
    52    29    32   ar
    53    30    58    1
    54    30    59    1
    55    31    35    1
    56    31    60    1
    57    32    36   ar
    58    32    61    1
    59    33    34   ar
    60    33    39   ar
    61    34    36   ar
    62    34    38   ar
    63    35    40   ar
    64    35    41   ar
    65    37    63    1
    66    37    64    1
    67    37    65    1
    68    38    43   ar
    69    39    42   ar
    70    39    66    1
    71    40    44   ar
    72    40    67    1
    73    41    45   ar
    74    41    68    1
    75    42    43   ar
    76    43    70    1
    77    44    46   ar
    78    45    46   ar
    79    45    71    1
    80    47    75    1
    81    47    76    1
    82    47    77    1
