@<TRIPOS>MOLECULE
IMPHY010556
 24 26 0 0 0
SMALL
GASTEIGER

@<TRIPOS>ATOM
      1 O           3.3021   -1.6462    0.0000 O.3     1  UNL1       -0.3691
      2 O           5.3718   -0.4228    0.0000 O.3     1  UNL1       -0.3876
      3 N           3.1117    0.8372    0.0000 N.3     1  UNL1       -0.2942
      4 C           2.8027   -0.1138    0.0000 C.3     1  UNL1        0.0415
      5 C           3.6117   -0.7016    0.0000 C.3     1  UNL1        0.1018
      6 C           4.1117    0.8372    0.0000 C.3     1  UNL1        0.0413
      7 C           2.3080   -1.6454    0.0000 C.3     1  UNL1        0.0622
      8 C           4.4207   -0.1138    0.0000 C.3     1  UNL1        0.0983
      9 C           2.0000   -0.7002    0.0000 C.3     1  UNL1       -0.0084
     10 C           2.4932    0.1166    0.0000 C.3     1  UNL1       -0.0084
     11 C           2.5239    1.6462    0.0000 C.3     1  UNL1       -0.0120
     12 H           3.3924    0.0778    0.0000 H       1  UNL1        0.0490
     13 H           4.1128   -1.0667    0.0000 H       1  UNL1        0.0638
     14 H           4.4761    1.3388    0.0000 H       1  UNL1        0.0490
     15 H           1.9436   -2.1470    0.0000 H       1  UNL1        0.0597
     16 H           4.5177   -0.7262    0.0000 H       1  UNL1        0.0635
     17 H           1.6889   -0.1639    0.0000 H       1  UNL1        0.0306
     18 H           1.4340   -0.9532    0.0000 H       1  UNL1        0.0306
     19 H           2.3432    0.7182    0.0000 H       1  UNL1        0.0306
     20 H           1.8747    0.0734    0.0000 H       1  UNL1        0.0306
     21 H           3.0255    2.0107    0.0000 H       1  UNL1        0.0391
     22 H           2.1595    2.1478    0.0000 H       1  UNL1        0.0391
     23 H           2.0224    1.2818    0.0000 H       1  UNL1        0.0391
     24 H           5.8326   -0.0080    0.0000 H       1  UNL1        0.2100
@<TRIPOS>BOND
     1     1     5    1
     2     1     7    1
     3     2     8    1
     4     2    24    1
     5     3     4    1
     6     3     6    1
     7     3    11    1
     8     4     5    1
     9     4     9    1
    10     4    12    1
    11     5     8    1
    12     5    13    1
    13     6     8    1
    14     6    10    1
    15     6    14    1
    16     7     9    1
    17     7    10    1
    18     7    15    1
    19     8    16    1
    20     9    17    1
    21     9    18    1
    22    10    19    1
    23    10    20    1
    24    11    21    1
    25    11    22    1
    26    11    23    1
