@<TRIPOS>MOLECULE
IMPHY008027
 84 84 0 0 0
SMALL
GASTEIGER

@<TRIPOS>ATOM
      1 O           2.3100   -4.6292    0.0000 O.3     1  UNL1       -0.3883
      2 O           7.6401   -3.1292    0.0000 O.3     1  UNL1       -0.3950
      3 O           7.6401   -6.1292    0.0000 O.2     1  UNL1       -0.2960
      4 O           3.1760    4.5311    0.0000 O.3     1  UNL1       -0.3874
      5 C           4.1760   -4.1292    0.0000 C.3     1  UNL1        0.0033
      6 C           3.3100   -4.6292    0.0000 C.3     1  UNL1        0.0695
      7 C           5.0420   -4.6292    0.0000 C.3     1  UNL1       -0.0112
      8 C           3.3100   -5.6292    0.0000 C.3     1  UNL1       -0.0200
      9 C           4.6760   -3.2631    0.0000 C.3     1  UNL1       -0.0410
     10 C           5.0420   -5.6292    0.0000 C.2     1  UNL1       -0.0598
     11 C           4.1760   -6.1292    0.0000 C.3     1  UNL1       -0.0282
     12 C           3.6760   -3.2631    0.0000 C.3     1  UNL1       -0.0564
     13 C           5.9081   -4.1292    0.0000 C.3     1  UNL1       -0.0438
     14 C           2.8100   -3.7631    0.0000 C.3     1  UNL1       -0.0355
     15 C           4.1760   -2.3971    0.0000 C.3     1  UNL1       -0.0339
     16 C           5.9081   -3.1292    0.0000 C.3     1  UNL1       -0.0292
     17 C           5.9081   -6.1292    0.0000 C.2     1  UNL1       -0.0117
     18 C           4.6760   -1.5311    0.0000 C.2     1  UNL1       -0.0850
     19 C           6.7741   -2.6292    0.0000 C.3     1  UNL1        0.0442
     20 C           5.9081   -7.1292    0.0000 C.3     1  UNL1       -0.0367
     21 C           6.7741   -5.6292    0.0000 C.2     1  UNL1        0.1460
     22 C           4.1760   -0.6651    0.0000 C.2     1  UNL1       -0.0762
     23 C           4.6760    0.2010    0.0000 C.3     1  UNL1       -0.0286
     24 C           3.1760   -0.6651    0.0000 C.3     1  UNL1       -0.0438
     25 C           4.1760    1.0670    0.0000 C.3     1  UNL1       -0.0308
     26 C           4.6760    1.9330    0.0000 C.2     1  UNL1       -0.0846
     27 C           4.1760    2.7990    0.0000 C.2     1  UNL1       -0.0738
     28 C           4.6760    3.6651    0.0000 C.3     1  UNL1       -0.0023
     29 C           3.1760    2.7990    0.0000 C.3     1  UNL1       -0.0437
     30 C           4.1760    4.5311    0.0000 C.3     1  UNL1        0.0772
     31 C           4.6760    5.3971    0.0000 C.2     1  UNL1       -0.0569
     32 C           4.1760    6.2631    0.0000 C.2     1  UNL1       -0.0772
     33 C           4.6760    7.1292    0.0000 C.3     1  UNL1       -0.0440
     34 C           3.1760    6.2631    0.0000 C.3     1  UNL1       -0.0440
     35 H           5.0420   -4.0092    0.0000 H       1  UNL1        0.0352
     36 H           2.6994   -5.5215    0.0000 H       1  UNL1        0.0296
     37 H           3.0980   -6.2118    0.0000 H       1  UNL1        0.0296
     38 H           5.1510   -3.6617    0.0000 H       1  UNL1        0.0275
     39 H           5.1510   -2.8646    0.0000 H       1  UNL1        0.0275
     40 H           3.7775   -6.6041    0.0000 H       1  UNL1        0.0311
     41 H           4.5746   -6.6041    0.0000 H       1  UNL1        0.0311
     42 H           4.2130   -2.9531    0.0000 H       1  UNL1        0.0236
     43 H           3.3660   -2.7262    0.0000 H       1  UNL1        0.0236
     44 H           3.1391   -3.5731    0.0000 H       1  UNL1        0.0236
     45 H           6.1201   -4.7118    0.0000 H       1  UNL1        0.0272
     46 H           6.5187   -4.0215    0.0000 H       1  UNL1        0.0272
     47 H           3.3469   -3.4531    0.0000 H       1  UNL1        0.0257
     48 H           2.5000   -3.2262    0.0000 H       1  UNL1        0.0257
     49 H           2.2731   -4.0731    0.0000 H       1  UNL1        0.0257
     50 H           3.7011   -1.9986    0.0000 H       1  UNL1        0.0308
     51 H           3.7011   -2.7956    0.0000 H       1  UNL1        0.0308
     52 H           2.0000   -5.1661    0.0000 H       1  UNL1        0.2102
     53 H           5.6960   -2.5466    0.0000 H       1  UNL1        0.0287
     54 H           5.2975   -3.2368    0.0000 H       1  UNL1        0.0287
     55 H           5.2960   -1.5311    0.0000 H       1  UNL1        0.0572
     56 H           7.1726   -2.1542    0.0000 H       1  UNL1        0.0557
     57 H           6.3756   -2.1542    0.0000 H       1  UNL1        0.0557
     58 H           5.2881   -7.1292    0.0000 H       1  UNL1        0.0278
     59 H           5.9081   -7.7492    0.0000 H       1  UNL1        0.0278
     60 H           6.5281   -7.1292    0.0000 H       1  UNL1        0.0278
     61 H           6.7741   -5.0092    0.0000 H       1  UNL1        0.1078
     62 H           5.1510   -0.1976    0.0000 H       1  UNL1        0.0313
     63 H           5.1510    0.5995    0.0000 H       1  UNL1        0.0313
     64 H           8.1771   -2.8192    0.0000 H       1  UNL1        0.2094
     65 H           3.1760   -0.0451    0.0000 H       1  UNL1        0.0274
     66 H           2.5560   -0.6651    0.0000 H       1  UNL1        0.0274
     67 H           3.1760   -1.2851    0.0000 H       1  UNL1        0.0274
     68 H           3.7011    1.4655    0.0000 H       1  UNL1        0.0310
     69 H           3.7011    0.6685    0.0000 H       1  UNL1        0.0310
     70 H           5.2960    1.9330    0.0000 H       1  UNL1        0.0572
     71 H           5.1510    3.2665    0.0000 H       1  UNL1        0.0338
     72 H           5.1510    4.0636    0.0000 H       1  UNL1        0.0338
     73 H           3.1760    3.4190    0.0000 H       1  UNL1        0.0274
     74 H           2.5560    2.7990    0.0000 H       1  UNL1        0.0274
     75 H           3.1760    2.1790    0.0000 H       1  UNL1        0.0274
     76 H           3.8660    3.9942    0.0000 H       1  UNL1        0.0641
     77 H           5.2960    5.3971    0.0000 H       1  UNL1        0.0597
     78 H           2.8660    5.0680    0.0000 H       1  UNL1        0.2102
     79 H           5.2130    6.8192    0.0000 H       1  UNL1        0.0274
     80 H           3.1760    6.8831    0.0000 H       1  UNL1        0.0274
     81 H           2.5560    6.2631    0.0000 H       1  UNL1        0.0274
     82 H           3.1760    5.6431    0.0000 H       1  UNL1        0.0274
     83 H           4.9860    7.6661    0.0000 H       1  UNL1        0.0274
     84 H           4.1391    7.4392    0.0000 H       1  UNL1        0.0274
@<TRIPOS>BOND
     1     1     6    1
     2     1    52    1
     3     2    19    1
     4     2    64    1
     5     3    21    2
     6     4    30    1
     7     4    78    1
     8     5     6    1
     9     5     7    1
    10     5     9    1
    11     5    12    1
    12     6     8    1
    13     6    14    1
    14     7    10    1
    15     7    13    1
    16     7    35    1
    17     8    11    1
    18     8    36    1
    19     8    37    1
    20     9    15    1
    21     9    38    1
    22     9    39    1
    23    10    11    1
    24    10    17    2
    25    11    40    1
    26    11    41    1
    27    12    42    1
    28    12    43    1
    29    12    44    1
    30    13    16    1
    31    13    45    1
    32    13    46    1
    33    14    47    1
    34    14    48    1
    35    14    49    1
    36    15    18    1
    37    15    50    1
    38    15    51    1
    39    16    19    1
    40    16    53    1
    41    16    54    1
    42    17    20    1
    43    17    21    1
    44    18    22    2
    45    18    55    1
    46    19    56    1
    47    19    57    1
    48    20    58    1
    49    20    59    1
    50    20    60    1
    51    21    61    1
    52    22    23    1
    53    22    24    1
    54    23    25    1
    55    23    62    1
    56    23    63    1
    57    24    65    1
    58    24    66    1
    59    24    67    1
    60    25    26    1
    61    25    68    1
    62    25    69    1
    63    26    27    2
    64    26    70    1
    65    27    28    1
    66    27    29    1
    67    28    30    1
    68    28    71    1
    69    28    72    1
    70    29    73    1
    71    29    74    1
    72    29    75    1
    73    30    31    1
    74    30    76    1
    75    31    32    2
    76    31    77    1
    77    32    33    1
    78    32    34    1
    79    33    79    1
    80    33    83    1
    81    33    84    1
    82    34    80    1
    83    34    81    1
    84    34    82    1
