@<TRIPOS>MOLECULE
IMPHY011018
 21 20 0 0 0
SMALL
GASTEIGER

@<TRIPOS>ATOM
      1 O           6.3301    0.7500    0.0000 O.3     1  UNL1       -0.3950
      2 C           3.7320    0.2500    0.0000 C.3     1  UNL1       -0.0421
      3 C           4.5981    0.7500    0.0000 C.3     1  UNL1       -0.0271
      4 C           2.8660    0.7500    0.0000 C.3     1  UNL1       -0.0532
      5 C           3.7320   -0.7500    0.0000 C.3     1  UNL1       -0.0624
      6 C           5.4641    0.2500    0.0000 C.3     1  UNL1        0.0444
      7 C           2.0000    0.2500    0.0000 C.3     1  UNL1       -0.0650
      8 H           4.4682   -0.1750    0.0000 H       1  UNL1        0.0299
      9 H           4.9966    1.2250    0.0000 H       1  UNL1        0.0290
     10 H           4.1996    1.2250    0.0000 H       1  UNL1        0.0290
     11 H           3.2646    1.2250    0.0000 H       1  UNL1        0.0265
     12 H           2.4675    1.2250    0.0000 H       1  UNL1        0.0265
     13 H           3.1120   -0.7500    0.0000 H       1  UNL1        0.0232
     14 H           3.7320   -1.3700    0.0000 H       1  UNL1        0.0232
     15 H           4.3520   -0.7500    0.0000 H       1  UNL1        0.0232
     16 H           5.0656   -0.2249    0.0000 H       1  UNL1        0.0557
     17 H           5.8626   -0.2249    0.0000 H       1  UNL1        0.0557
     18 H           1.6900    0.7869    0.0000 H       1  UNL1        0.0230
     19 H           1.4631   -0.0600    0.0000 H       1  UNL1        0.0230
     20 H           2.3100   -0.2869    0.0000 H       1  UNL1        0.0230
     21 H           6.8671    0.4400    0.0000 H       1  UNL1        0.2094
@<TRIPOS>BOND
     1     1     6    1
     2     1    21    1
     3     2     3    1
     4     2     4    1
     5     2     5    1
     6     2     8    1
     7     3     6    1
     8     3     9    1
     9     3    10    1
    10     4     7    1
    11     4    11    1
    12     4    12    1
    13     5    13    1
    14     5    14    1
    15     5    15    1
    16     6    16    1
    17     6    17    1
    18     7    18    1
    19     7    19    1
    20     7    20    1
