@<TRIPOS>MOLECULE
IMPHY014386
 56 59 0 0 0
SMALL
GASTEIGER

@<TRIPOS>ATOM
      1 O           4.5295    2.0737    0.0000 O.3     1  UNL1       -0.3915
      2 O           8.6179    1.1708    0.0000 O.3     1  UNL1       -0.3785
      3 O           8.1745   -0.0066    0.0000 O.2     1  UNL1       -0.2937
      4 O           9.4022    2.0711    0.0000 O.3     1  UNL1       -0.3917
      5 O           2.3052   -2.1910    0.0000 O.3     1  UNL1       -0.4802
      6 O           3.8128   -3.0437    0.0000 O.2     1  UNL1       -0.2504
      7 C           6.5090    0.3000    0.0000 C.3     1  UNL1        0.0380
      8 C           5.6405    0.7956    0.0000 C.3     1  UNL1        0.0031
      9 C           4.7330    0.2843    0.0000 C.3     1  UNL1       -0.0222
     10 C           4.7302   -0.7574    0.0000 C.3     1  UNL1       -0.0197
     11 C           6.4845    1.4813    0.0000 C.3     1  UNL1       -0.0342
     12 C           7.1606    2.4504    0.0000 C.3     1  UNL1        0.0003
     13 C           6.5302   -0.7415    0.0000 C.3     1  UNL1       -0.0399
     14 C           5.4865    1.7837    0.0000 C.3     1  UNL1        0.0598
     15 C           5.6349   -1.2737    0.0000 C.3     1  UNL1       -0.0478
     16 C           7.7280    1.6270    0.0000 C.3     1  UNL1        0.1497
     17 C           7.4380    0.6699    0.0000 C.2     1  UNL1        0.1736
     18 C           3.7975   -1.3118    0.0000 C.3     1  UNL1        0.0681
     19 C           6.1630    2.5201    0.0000 C.3     1  UNL1       -0.0206
     20 C           3.8034    0.8437    0.0000 C.3     1  UNL1       -0.0469
     21 C           4.3936    1.2249    0.0000 C.3     1  UNL1       -0.0589
     22 C           2.8552   -0.7740    0.0000 C.3     1  UNL1       -0.0372
     23 C           2.8582    0.3110    0.0000 C.3     1  UNL1       -0.0515
     24 C           8.4369    2.3323    0.0000 C.3     1  UNL1        0.0801
     25 C           4.3052   -2.1733    0.0000 C.3     1  UNL1       -0.0491
     26 C           3.3052   -2.1822    0.0000 C.2     1  UNL1        0.3110
     27 H           4.9023    1.2170    0.0000 H       1  UNL1        0.0340
     28 H           4.7377   -1.6073    0.0000 H       1  UNL1        0.0317
     29 H           6.1103    1.9756    0.0000 H       1  UNL1        0.0278
     30 H           5.8988    1.2778    0.0000 H       1  UNL1        0.0278
     31 H           7.4071    3.2639    0.0000 H       1  UNL1        0.0335
     32 H           6.7512   -1.3208    0.0000 H       1  UNL1        0.0275
     33 H           7.1388   -0.6229    0.0000 H       1  UNL1        0.0275
     34 H           5.3231    2.3818    0.0000 H       1  UNL1        0.0596
     35 H           5.2399   -1.7516    0.0000 H       1  UNL1        0.0269
     36 H           6.0382   -1.7446    0.0000 H       1  UNL1        0.0269
     37 H           6.3428    3.1135    0.0000 H       1  UNL1        0.0294
     38 H           5.6246    2.8275    0.0000 H       1  UNL1        0.0294
     39 H           4.2093    1.3124    0.0000 H       1  UNL1        0.0271
     40 H           3.4111    1.3238    0.0000 H       1  UNL1        0.0271
     41 H           4.9768    1.4353    0.0000 H       1  UNL1        0.0235
     42 H           4.1831    1.8081    0.0000 H       1  UNL1        0.0235
     43 H           3.8104    1.0144    0.0000 H       1  UNL1        0.0235
     44 H           2.2446   -0.6662    0.0000 H       1  UNL1        0.0276
     45 H           2.6446   -1.3571    0.0000 H       1  UNL1        0.0276
     46 H           2.6507    0.8953    0.0000 H       1  UNL1        0.0266
     47 H           2.2470    0.2066    0.0000 H       1  UNL1        0.0266
     48 H           8.7003    2.8936    0.0000 H       1  UNL1        0.0590
     49 H           7.9299    2.6892    0.0000 H       1  UNL1        0.0590
     50 H           3.7710   -2.4881    0.0000 H       1  UNL1        0.0240
     51 H           4.6199   -2.7075    0.0000 H       1  UNL1        0.0240
     52 H           4.8393   -1.8586    0.0000 H       1  UNL1        0.0240
     53 H           4.3885    2.6774    0.0000 H       1  UNL1        0.2098
     54 H           8.6488    0.5515    0.0000 H       1  UNL1        0.2109
     55 H           9.8417    2.5084    0.0000 H       1  UNL1        0.2095
     56 H           2.0000   -2.7307    0.0000 H       1  UNL1        0.2951
@<TRIPOS>BOND
     1    14     1    1
     2     1    53    1
     3    16     2    1
     4     2    54    1
     5     3    17    2
     6     4    24    1
     7     4    55    1
     8     5    26    1
     9     5    56    1
    10     6    26    2
    11     7     8    1
    12     7    11    1
    13     7    13    1
    14     7    17    1
    15     8     9    1
    16     8    14    1
    17     8    27    1
    18     9    10    1
    19     9    20    1
    20     9    21    1
    21    10    15    1
    22    10    18    1
    23    10    28    1
    24    11    12    1
    25    11    29    1
    26    11    30    1
    27    12    16    1
    28    12    19    1
    29    12    31    1
    30    13    15    1
    31    13    32    1
    32    13    33    1
    33    14    19    1
    34    14    34    1
    35    15    35    1
    36    15    36    1
    37    16    17    1
    38    16    24    1
    39    18    22    1
    40    18    25    1
    41    18    26    1
    42    19    37    1
    43    19    38    1
    44    20    23    1
    45    20    39    1
    46    20    40    1
    47    21    41    1
    48    21    42    1
    49    21    43    1
    50    22    23    1
    51    22    44    1
    52    22    45    1
    53    23    46    1
    54    23    47    1
    55    24    48    1
    56    24    49    1
    57    25    50    1
    58    25    51    1
    59    25    52    1
