@<TRIPOS>MOLECULE
IMPHY007050
 17 18 0 0 0
SMALL
GASTEIGER

@<TRIPOS>ATOM
      1 N           5.5321   -0.5000    0.0000 N.ar    1  UNL1       -0.2626
      2 C           3.8000    0.5000    0.0000 C.ar    1  UNL1       -0.0150
      3 C           3.8000   -0.5000    0.0000 C.ar    1  UNL1        0.0002
      4 C           2.9061    1.0347    0.0000 C.ar    1  UNL1       -0.0539
      5 C           2.9061   -1.0347    0.0000 C.ar    1  UNL1       -0.0526
      6 C           4.6660    1.0000    0.0000 C.ar    1  UNL1       -0.0359
      7 C           4.6660   -1.0000    0.0000 C.ar    1  UNL1        0.0352
      8 C           2.0000    0.5208    0.0000 C.ar    1  UNL1       -0.0612
      9 C           2.0000   -0.5208    0.0000 C.ar    1  UNL1       -0.0611
     10 C           5.5321    0.5000    0.0000 C.ar    1  UNL1        0.0281
     11 H           2.9132    1.6546    0.0000 H       1  UNL1        0.0624
     12 H           2.9132   -1.6546    0.0000 H       1  UNL1        0.0624
     13 H           4.6660    1.6200    0.0000 H       1  UNL1        0.0639
     14 H           4.6660   -1.6200    0.0000 H       1  UNL1        0.0836
     15 H           1.4643    0.8329    0.0000 H       1  UNL1        0.0618
     16 H           1.4643   -0.8329    0.0000 H       1  UNL1        0.0618
     17 H           6.0690    0.8100    0.0000 H       1  UNL1        0.0830
@<TRIPOS>BOND
     1     1     7   ar
     2     1    10   ar
     3     2     3   ar
     4     2     4   ar
     5     2     6   ar
     6     3     5   ar
     7     3     7   ar
     8     4     8   ar
     9     4    11    1
    10     5     9   ar
    11     5    12    1
    12     6    10   ar
    13     6    13    1
    14     7    14    1
    15     8     9   ar
    16     8    15    1
    17     9    16    1
    18    10    17    1
