@<TRIPOS>MOLECULE
IMPHY009237
 154 162 0 0 0
SMALL
GASTEIGER

@<TRIPOS>ATOM
      1 O          10.8882    1.6828    0.0000 O.2     1  UNL1       -0.4925
      2 O           9.4651   -6.5613    0.0000 O.3     1  UNL1       -0.3451
      3 O           7.7331   -6.5613    0.0000 O.3     1  UNL1       -0.3405
      4 O           9.4651   -8.5613    0.0000 O.3     1  UNL1       -0.3378
      5 O          11.3225    6.3366    0.0000 O.3     1  UNL1       -0.3484
      6 O           7.7331   -9.5613    0.0000 O.3     1  UNL1       -0.3864
      7 O           6.0010   -8.5613    0.0000 O.3     1  UNL1       -0.3401
      8 O          10.3312   -7.0613    0.0000 O.3     1  UNL1       -0.3431
      9 O           6.0010   -5.5613    0.0000 O.3     1  UNL1       -0.3924
     10 O          13.0446    6.5228    0.0000 O.3     1  UNL1       -0.3405
     11 O           5.1350   -7.0613    0.0000 O.3     1  UNL1       -0.3431
     12 O          11.1972   -9.5613    0.0000 O.3     1  UNL1       -0.3841
     13 O          11.1075    8.3250    0.0000 O.3     1  UNL1       -0.3841
     14 O          12.9292   -8.5613    0.0000 O.3     1  UNL1       -0.3864
     15 O           4.2690   -9.5613    0.0000 O.3     1  UNL1       -0.3841
     16 O          12.9292   -6.5613    0.0000 O.3     1  UNL1       -0.3866
     17 O          12.7221    9.5054    0.0000 O.3     1  UNL1       -0.3864
     18 O           2.5369   -8.5613    0.0000 O.3     1  UNL1       -0.3864
     19 O          14.5516    8.6974    0.0000 O.3     1  UNL1       -0.3865
     20 O           2.5369   -6.5613    0.0000 O.3     1  UNL1       -0.3866
     21 O          15.5738    7.2992    0.0000 O.3     1  UNL1       -0.3924
     22 C           9.4944   -0.3644    0.0000 C.3     1  UNL1       -0.0189
     23 C          10.3623   -0.8611    0.0000 C.3     1  UNL1       -0.0282
     24 C          10.3662   -1.8611    0.0000 C.3     1  UNL1       -0.0305
     25 C           9.5021   -2.3644    0.0000 C.3     1  UNL1       -0.0285
     26 C           9.6999    0.6082    0.0000 C.3     1  UNL1        0.0259
     27 C          11.0968   -0.1912    0.0000 C.3     1  UNL1       -0.0116
     28 C           8.6303   -0.8678    0.0000 C.3     1  UNL1       -0.0464
     29 C          10.6882    0.7150    0.0000 C.3     1  UNL1        0.1071
     30 C           9.4901   -3.4060    0.0000 C.3     1  UNL1       -0.0078
     31 C           8.6342   -1.8678    0.0000 C.3     1  UNL1       -0.0486
     32 C          11.2781   -2.3644    0.0000 C.3     1  UNL1       -0.0311
     33 C           8.6264    0.1322    0.0000 C.3     1  UNL1       -0.0586
     34 C          10.3901   -3.9303    0.0000 C.2     1  UNL1       -0.0648
     35 C           9.2976    1.5108    0.0000 C.2     1  UNL1       -0.0281
     36 C           8.5402   -3.9303    0.0000 C.3     1  UNL1       -0.0413
     37 C          11.2902   -3.4060    0.0000 C.2     1  UNL1       -0.0839
     38 C           8.6260   -2.9027    0.0000 C.3     1  UNL1       -0.0556
     39 C          10.0305    2.1736    0.0000 C.2     1  UNL1        0.0975
     40 C          10.4027   -5.0152    0.0000 C.3     1  UNL1       -0.0047
     41 C           8.5276   -5.0152    0.0000 C.3     1  UNL1       -0.0254
     42 C           9.4651   -5.5613    0.0000 C.3     1  UNL1        0.0655
     43 C           8.3192    1.7174    0.0000 C.3     1  UNL1       -0.0400
     44 C           9.9230    3.1678    0.0000 C.3     1  UNL1        0.0052
     45 C          10.7303    3.7580    0.0000 C.3     1  UNL1       -0.0415
     46 C           8.5991   -7.0613    0.0000 C.3     1  UNL1        0.1886
     47 C          10.6228    4.7522    0.0000 C.3     1  UNL1       -0.0199
     48 C           8.5991   -8.0613    0.0000 C.3     1  UNL1        0.1406
     49 C          11.4300    5.3424    0.0000 C.3     1  UNL1        0.0533
     50 C           9.7080    5.1562    0.0000 C.3     1  UNL1       -0.0603
     51 C           7.7331   -8.5613    0.0000 C.3     1  UNL1        0.1148
     52 C           6.8671   -7.0613    0.0000 C.3     1  UNL1        0.1134
     53 C           6.8671   -8.0613    0.0000 C.3     1  UNL1        0.1184
     54 C           6.0010   -6.5613    0.0000 C.3     1  UNL1        0.0730
     55 C          10.3312   -8.0613    0.0000 C.3     1  UNL1        0.1884
     56 C          12.1298    6.9268    0.0000 C.3     1  UNL1        0.1879
     57 C          11.1972   -8.5613    0.0000 C.3     1  UNL1        0.1341
     58 C           5.1350   -8.0613    0.0000 C.3     1  UNL1        0.1883
     59 C          12.0223    7.9210    0.0000 C.3     1  UNL1        0.1341
     60 C          12.0632   -8.0613    0.0000 C.3     1  UNL1        0.1140
     61 C          11.1972   -6.5613    0.0000 C.3     1  UNL1        0.0873
     62 C           4.2690   -8.5613    0.0000 C.3     1  UNL1        0.1341
     63 C          12.0632   -7.0613    0.0000 C.3     1  UNL1        0.1095
     64 C          12.8296    8.5112    0.0000 C.3     1  UNL1        0.1141
     65 C          13.8518    7.1130    0.0000 C.3     1  UNL1        0.1130
     66 C           3.4030   -8.0613    0.0000 C.3     1  UNL1        0.1140
     67 C          13.7443    8.1072    0.0000 C.3     1  UNL1        0.1119
     68 C           4.2690   -6.5613    0.0000 C.3     1  UNL1        0.0873
     69 C           3.4030   -7.0613    0.0000 C.3     1  UNL1        0.1095
     70 C          11.1972   -5.5613    0.0000 C.3     1  UNL1       -0.0361
     71 C          14.7666    6.7090    0.0000 C.3     1  UNL1        0.0730
     72 C           4.2690   -5.5613    0.0000 C.3     1  UNL1       -0.0361
     73 H          11.1406   -1.2028    0.0000 H       1  UNL1        0.0310
     74 H          11.0974   -1.4276    0.0000 H       1  UNL1        0.0310
     75 H          10.2366   -2.7923    0.0000 H       1  UNL1        0.0312
     76 H           8.8546    0.5186    0.0000 H       1  UNL1        0.0388
     77 H          11.4642   -0.6906    0.0000 H       1  UNL1        0.0304
     78 H          11.6321    0.1217    0.0000 H       1  UNL1        0.0304
     79 H           8.4160   -0.2860    0.0000 H       1  UNL1        0.0271
     80 H           8.0201   -0.9778    0.0000 H       1  UNL1        0.0271
     81 H          11.5330    0.8082    0.0000 H       1  UNL1        0.0739
     82 H           8.0232   -1.7625    0.0000 H       1  UNL1        0.0268
     83 H           8.4244   -2.4512    0.0000 H       1  UNL1        0.0268
     84 H          11.8902   -2.4634    0.0000 H       1  UNL1        0.0310
     85 H          11.4804   -1.7784    0.0000 H       1  UNL1        0.0310
     86 H           8.9344    0.6703    0.0000 H       1  UNL1        0.0235
     87 H           8.0883    0.4401    0.0000 H       1  UNL1        0.0235
     88 H           8.3185   -0.4059    0.0000 H       1  UNL1        0.0235
     89 H           8.3379   -3.3442    0.0000 H       1  UNL1        0.0274
     90 H           7.9281   -4.0293    0.0000 H       1  UNL1        0.0274
     91 H          11.8295   -3.7118    0.0000 H       1  UNL1        0.0572
     92 H           8.9380   -2.3669    0.0000 H       1  UNL1        0.0238
     93 H           8.0902   -2.5906    0.0000 H       1  UNL1        0.0238
     94 H           8.3139   -3.4384    0.0000 H       1  UNL1        0.0238
     95 H          10.6185   -5.5964    0.0000 H       1  UNL1        0.0335
     96 H          11.0123   -4.9020    0.0000 H       1  UNL1        0.0335
     97 H           7.9180   -4.9020    0.0000 H       1  UNL1        0.0290
     98 H           8.3118   -5.5964    0.0000 H       1  UNL1        0.0290
     99 H          10.0027   -5.8703    0.0000 H       1  UNL1        0.0600
    100 H           8.4473    2.3241    0.0000 H       1  UNL1        0.0276
    101 H           7.7125    1.8456    0.0000 H       1  UNL1        0.0276
    102 H           8.1910    1.1108    0.0000 H       1  UNL1        0.0276
    103 H           9.6496    3.7242    0.0000 H       1  UNL1        0.0343
    104 H           9.3276    2.9951    0.0000 H       1  UNL1        0.0343
    105 H          11.0037    3.2015    0.0000 H       1  UNL1        0.0273
    106 H          11.3258    3.9306    0.0000 H       1  UNL1        0.0273
    107 H           8.5991   -6.4413    0.0000 H       1  UNL1        0.0938
    108 H          10.1223    4.3863    0.0000 H       1  UNL1        0.0320
    109 H           8.5991   -8.6813    0.0000 H       1  UNL1        0.0675
    110 H          11.7035    4.7859    0.0000 H       1  UNL1        0.0563
    111 H          12.0255    5.5150    0.0000 H       1  UNL1        0.0563
    112 H           7.1962   -8.8713    0.0000 H       1  UNL1        0.0648
    113 H           9.9585    5.7233    0.0000 H       1  UNL1        0.0233
    114 H           9.1409    5.4067    0.0000 H       1  UNL1        0.0233
    115 H           9.4576    4.5890    0.0000 H       1  UNL1        0.0233
    116 H           6.8671   -6.4413    0.0000 H       1  UNL1        0.0647
    117 H           6.3301   -7.7513    0.0000 H       1  UNL1        0.0651
    118 H           5.3905   -6.4536    0.0000 H       1  UNL1        0.0584
    119 H           5.7890   -7.1439    0.0000 H       1  UNL1        0.0584
    120 H           9.7942   -7.7513    0.0000 H       1  UNL1        0.0938
    121 H           7.1962   -9.8713    0.0000 H       1  UNL1        0.2100
    122 H          11.5626    7.1773    0.0000 H       1  UNL1        0.0937
    123 H          11.7341   -8.8713    0.0000 H       1  UNL1        0.0671
    124 H           5.1350   -8.6813    0.0000 H       1  UNL1        0.0938
    125 H          11.9556    8.5374    0.0000 H       1  UNL1        0.0671
    126 H          12.6002   -7.7513    0.0000 H       1  UNL1        0.0648
    127 H           5.4641   -5.2513    0.0000 H       1  UNL1        0.2095
    128 H          10.6603   -6.2513    0.0000 H       1  UNL1        0.0621
    129 H           3.7320   -8.8713    0.0000 H       1  UNL1        0.0671
    130 H          12.0632   -6.4413    0.0000 H       1  UNL1        0.0646
    131 H          13.3301    8.8771    0.0000 H       1  UNL1        0.0648
    132 H          13.9185    6.4966    0.0000 H       1  UNL1        0.0647
    133 H           2.8660   -7.7513    0.0000 H       1  UNL1        0.0648
    134 H          14.3115    7.8567    0.0000 H       1  UNL1        0.0647
    135 H          11.7341   -9.8713    0.0000 H       1  UNL1        0.2101
    136 H           4.8059   -6.2513    0.0000 H       1  UNL1        0.0621
    137 H           3.4030   -6.4413    0.0000 H       1  UNL1        0.0646
    138 H          11.8172   -5.5613    0.0000 H       1  UNL1        0.0255
    139 H          11.1972   -4.9413    0.0000 H       1  UNL1        0.0255
    140 H          10.5772   -5.5613    0.0000 H       1  UNL1        0.0255
    141 H          11.0409    8.9414    0.0000 H       1  UNL1        0.2101
    142 H          13.4662   -8.2513    0.0000 H       1  UNL1        0.2100
    143 H           3.7320   -9.8713    0.0000 H       1  UNL1        0.2101
    144 H          14.4214    6.1939    0.0000 H       1  UNL1        0.0584
    145 H          15.2138    6.2796    0.0000 H       1  UNL1        0.0584
    146 H          13.4662   -6.8713    0.0000 H       1  UNL1        0.2100
    147 H          13.2226    9.8713    0.0000 H       1  UNL1        0.2100
    148 H           4.8890   -5.5613    0.0000 H       1  UNL1        0.0255
    149 H           4.2690   -4.9413    0.0000 H       1  UNL1        0.0255
    150 H           3.6490   -5.5613    0.0000 H       1  UNL1        0.0255
    151 H           2.0000   -8.2513    0.0000 H       1  UNL1        0.2100
    152 H          14.4849    9.3138    0.0000 H       1  UNL1        0.2100
    153 H           2.5369   -5.9413    0.0000 H       1  UNL1        0.2100
    154 H          16.1410    7.0487    0.0000 H       1  UNL1        0.2095
@<TRIPOS>BOND
     1     1    29    1
     2     1    39    1
     3     2    42    1
     4    46     2    1
     5     3    46    1
     6     3    52    1
     7    48     4    1
     8    55     4    1
     9     5    49    1
    10    56     5    1
    11    51     6    1
    12     6   121    1
    13    53     7    1
    14    58     7    1
    15     8    55    1
    16     8    61    1
    17     9    54    1
    18     9   127    1
    19    10    56    1
    20    10    65    1
    21    11    58    1
    22    11    68    1
    23    57    12    1
    24    12   135    1
    25    59    13    1
    26    13   141    1
    27    60    14    1
    28    14   142    1
    29    62    15    1
    30    15   143    1
    31    63    16    1
    32    16   146    1
    33    64    17    1
    34    17   147    1
    35    66    18    1
    36    18   151    1
    37    67    19    1
    38    19   152    1
    39    69    20    1
    40    20   153    1
    41    21    71    1
    42    21   154    1
    43    22    23    1
    44    22    26    1
    45    22    28    1
    46    22    33    1
    47    23    24    1
    48    23    27    1
    49    23    73    1
    50    24    25    1
    51    24    32    1
    52    24    74    1
    53    25    30    1
    54    25    31    1
    55    25    75    1
    56    26    29    1
    57    26    35    1
    58    26    76    1
    59    27    29    1
    60    27    77    1
    61    27    78    1
    62    28    31    1
    63    28    79    1
    64    28    80    1
    65    29    81    1
    66    30    34    1
    67    30    36    1
    68    30    38    1
    69    31    82    1
    70    31    83    1
    71    32    37    1
    72    32    84    1
    73    32    85    1
    74    33    86    1
    75    33    87    1
    76    33    88    1
    77    34    37    2
    78    34    40    1
    79    35    39    2
    80    35    43    1
    81    36    41    1
    82    36    89    1
    83    36    90    1
    84    37    91    1
    85    38    92    1
    86    38    93    1
    87    38    94    1
    88    39    44    1
    89    40    42    1
    90    40    95    1
    91    40    96    1
    92    41    42    1
    93    41    97    1
    94    41    98    1
    95    42    99    1
    96    43   100    1
    97    43   101    1
    98    43   102    1
    99    44    45    1
   100    44   103    1
   101    44   104    1
   102    45    47    1
   103    45   105    1
   104    45   106    1
   105    46    48    1
   106    46   107    1
   107    47    49    1
   108    47    50    1
   109    47   108    1
   110    48    51    1
   111    48   109    1
   112    49   110    1
   113    49   111    1
   114    50   113    1
   115    50   114    1
   116    50   115    1
   117    51    53    1
   118    51   112    1
   119    52    53    1
   120    52    54    1
   121    52   116    1
   122    53   117    1
   123    54   118    1
   124    54   119    1
   125    55    57    1
   126    55   120    1
   127    56    59    1
   128    56   122    1
   129    57    60    1
   130    57   123    1
   131    58    62    1
   132    58   124    1
   133    59    64    1
   134    59   125    1
   135    60    63    1
   136    60   126    1
   137    61    63    1
   138    61    70    1
   139    61   128    1
   140    62    66    1
   141    62   129    1
   142    63   130    1
   143    64    67    1
   144    64   131    1
   145    65    67    1
   146    65    71    1
   147    65   132    1
   148    66    69    1
   149    66   133    1
   150    67   134    1
   151    68    69    1
   152    68    72    1
   153    68   136    1
   154    69   137    1
   155    70   138    1
   156    70   139    1
   157    70   140    1
   158    71   144    1
   159    71   145    1
   160    72   148    1
   161    72   149    1
   162    72   150    1
