@<TRIPOS>MOLECULE
IMPHY008608
 49 52 0 0 0
SMALL
GASTEIGER

@<TRIPOS>ATOM
      1 O           6.6606   -1.5261    0.0000 O.3     1  UNL1       -0.4577
      2 O           2.5405   -0.7446    0.0000 O.3     1  UNL1       -0.3909
      3 O           6.9088    0.7523    0.0000 O.3     1  UNL1       -0.3834
      4 O           6.6421   -3.2836    0.0000 O.2     1  UNL1       -0.2502
      5 O           4.2947    2.3215    0.0000 O.2     1  UNL1       -0.4266
      6 O           2.5247    2.2974    0.0000 O.2     1  UNL1       -0.2452
      7 C           5.1767   -1.2477    0.0000 C.3     1  UNL1        0.0261
      8 C           4.3107   -0.7477    0.0000 C.3     1  UNL1        0.0268
      9 C           5.1928   -2.2892    0.0000 C.3     1  UNL1        0.0722
     10 C           6.0427   -0.7477    0.0000 C.3     1  UNL1        0.1377
     11 C           3.4007   -1.2546    0.0000 C.3     1  UNL1        0.0650
     12 C           4.2947   -2.8170    0.0000 C.3     1  UNL1       -0.0347
     13 C           3.3926   -2.2962    0.0000 C.3     1  UNL1       -0.0250
     14 C           4.3107    0.2523    0.0000 C.ar    1  UNL1       -0.0229
     15 C           6.0427    0.2523    0.0000 C.3     1  UNL1        0.1206
     16 C           6.1808   -2.3964    0.0000 C.2     1  UNL1        0.3138
     17 C           3.4446   -0.2477    0.0000 C.3     1  UNL1       -0.0527
     18 C           5.1767    0.7523    0.0000 C.ar    1  UNL1        0.0268
     19 C           5.7027   -3.1494    0.0000 C.3     1  UNL1       -0.0490
     20 C           3.4007    0.7591    0.0000 C.ar    1  UNL1        0.0271
     21 C           5.1928    1.7938    0.0000 C.ar    1  UNL1        0.1177
     22 C           6.0645    2.2837    0.0000 C.3     1  UNL1        0.0120
     23 C           3.3926    1.8007    0.0000 C.ar    1  UNL1        0.3372
     24 C           6.0761    3.2836    0.0000 C.3     1  UNL1       -0.0558
     25 C           6.9247    1.7737    0.0000 C.3     1  UNL1       -0.0558
     26 H           4.4406   -1.6727    0.0000 H       1  UNL1        0.0357
     27 H           6.8453   -0.4679    0.0000 H       1  UNL1        0.0767
     28 H           2.8608   -1.5594    0.0000 H       1  UNL1        0.0602
     29 H           3.8974   -3.2930    0.0000 H       1  UNL1        0.0277
     30 H           4.6957   -3.2899    0.0000 H       1  UNL1        0.0277
     31 H           2.7826   -2.1854    0.0000 H       1  UNL1        0.0291
     32 H           3.1791   -2.8782    0.0000 H       1  UNL1        0.0291
     33 H           6.0427    0.8723    0.0000 H       1  UNL1        0.0682
     34 H           3.7546    0.2892    0.0000 H       1  UNL1        0.0239
     35 H           2.9077    0.0623    0.0000 H       1  UNL1        0.0239
     36 H           3.1346   -0.7847    0.0000 H       1  UNL1        0.0239
     37 H           5.1694   -3.4656    0.0000 H       1  UNL1        0.0240
     38 H           6.0189   -3.6828    0.0000 H       1  UNL1        0.0240
     39 H           6.2360   -2.8332    0.0000 H       1  UNL1        0.0240
     40 H           2.8674    0.4429    0.0000 H       1  UNL1        0.0692
     41 H           2.0000   -1.0484    0.0000 H       1  UNL1        0.2098
     42 H           7.4457    0.4423    0.0000 H       1  UNL1        0.2104
     43 H           6.6050    2.5875    0.0000 H       1  UNL1        0.0374
     44 H           6.6960    3.2765    0.0000 H       1  UNL1        0.0236
     45 H           6.0832    3.9036    0.0000 H       1  UNL1        0.0236
     46 H           5.4561    3.2908    0.0000 H       1  UNL1        0.0236
     47 H           6.6085    1.2404    0.0000 H       1  UNL1        0.0236
     48 H           7.4580    1.4575    0.0000 H       1  UNL1        0.0236
     49 H           7.2409    2.3070    0.0000 H       1  UNL1        0.0236
@<TRIPOS>BOND
     1     1    10    1
     2     1    16    1
     3    11     2    1
     4     2    41    1
     5    15     3    1
     6     3    42    1
     7     4    16    2
     8     5    21   ar
     9     5    23   ar
    10     6    23    2
    11     7     8    1
    12     7     9    1
    13     7    10    1
    14     7    26    1
    15     8    11    1
    16     8    14    1
    17     8    17    1
    18     9    12    1
    19     9    16    1
    20     9    19    1
    21    10    15    1
    22    10    27    1
    23    11    13    1
    24    11    28    1
    25    12    13    1
    26    12    29    1
    27    12    30    1
    28    13    31    1
    29    13    32    1
    30    14    18   ar
    31    14    20   ar
    32    15    18    1
    33    15    33    1
    34    17    34    1
    35    17    35    1
    36    17    36    1
    37    18    21   ar
    38    19    37    1
    39    19    38    1
    40    19    39    1
    41    20    23   ar
    42    20    40    1
    43    21    22    1
    44    22    24    1
    45    22    25    1
    46    22    43    1
    47    24    44    1
    48    24    45    1
    49    24    46    1
    50    25    47    1
    51    25    48    1
    52    25    49    1
