@<TRIPOS>MOLECULE
IMPHY003917
 68 73 0 0 0
SMALL
GASTEIGER

@<TRIPOS>ATOM
      1 O           5.5301   -4.0336    0.0000 O.3     1  UNL1       -0.4811
      2 O           5.5141    2.0079    0.0000 O.3     1  UNL1       -0.4811
      3 O           7.2622   -2.0336    0.0000 O.3     1  UNL1       -0.3868
      4 O           7.2622   -1.0336    0.0000 O.3     1  UNL1       -0.5060
      5 O           8.1821    2.5115    0.0000 O.3     1  UNL1       -0.3875
      6 O           3.6793   -0.3599    0.0000 O.3     1  UNL1       -0.5062
      7 O           3.1363   -1.2255    0.0000 O.3     1  UNL1       -0.5062
      8 O           2.0000   -4.0577    0.0000 O.3     1  UNL1       -0.5065
      9 O           8.1282   -6.5336    0.0000 O.3     1  UNL1       -0.5033
     10 O           9.8602   -5.5336    0.0000 O.3     1  UNL1       -0.5033
     11 O           8.1326    5.5423    0.0000 O.3     1  UNL1       -0.5033
     12 O           6.3967    6.5357    0.0000 O.3     1  UNL1       -0.5033
     13 C           5.5301   -2.0336    0.0000 C.3     1  UNL1        0.0528
     14 C           6.3961   -2.5336    0.0000 C.3     1  UNL1        0.1074
     15 C           6.3961   -3.5336    0.0000 C.3     1  UNL1        0.1518
     16 C           5.5301   -1.0336    0.0000 C.ar    1  UNL1        0.0461
     17 C           4.6641   -2.5336    0.0000 C.ar    1  UNL1        0.0461
     18 C           6.3961    0.4664    0.0000 C.ar    1  UNL1        0.0387
     19 C           7.3062    0.9733    0.0000 C.3     1  UNL1        0.0092
     20 C           6.3961   -0.5336    0.0000 C.ar    1  UNL1        0.1309
     21 C           7.3142    2.0149    0.0000 C.3     1  UNL1        0.1004
     22 C           4.6641   -3.5336    0.0000 C.ar    1  UNL1        0.1323
     23 C           6.4121    2.5357    0.0000 C.3     1  UNL1        0.1513
     24 C           5.5301    0.9664    0.0000 C.ar    1  UNL1        0.1317
     25 C           4.6641   -0.5336    0.0000 C.ar    1  UNL1        0.1277
     26 C           7.2622   -4.0336    0.0000 C.ar    1  UNL1       -0.0012
     27 C           3.7702   -1.9989    0.0000 C.ar    1  UNL1        0.1276
     28 C           4.6641    0.4664    0.0000 C.ar    1  UNL1        0.0224
     29 C           3.7702   -4.0682    0.0000 C.ar    1  UNL1        0.0221
     30 C           6.4082    3.5357    0.0000 C.ar    1  UNL1       -0.0012
     31 C           2.8641   -2.5128    0.0000 C.ar    1  UNL1        0.0218
     32 C           7.2622   -5.0336    0.0000 C.ar    1  UNL1       -0.0098
     33 C           8.1282   -3.5336    0.0000 C.ar    1  UNL1       -0.0513
     34 C           2.8641   -3.5544    0.0000 C.ar    1  UNL1        0.1238
     35 C           7.2723    4.0390    0.0000 C.ar    1  UNL1       -0.0098
     36 C           5.5403    4.0323    0.0000 C.ar    1  UNL1       -0.0513
     37 C           8.1282   -5.5336    0.0000 C.ar    1  UNL1        0.1586
     38 C           8.9942   -4.0336    0.0000 C.ar    1  UNL1       -0.0162
     39 C           8.9942   -5.0336    0.0000 C.ar    1  UNL1        0.1582
     40 C           7.2685    5.0390    0.0000 C.ar    1  UNL1        0.1586
     41 C           5.5364    5.0323    0.0000 C.ar    1  UNL1       -0.0162
     42 C           6.4005    5.5357    0.0000 C.ar    1  UNL1        0.1582
     43 H           6.2662   -1.6086    0.0000 H       1  UNL1        0.0429
     44 H           6.9331   -2.8436    0.0000 H       1  UNL1        0.0643
     45 H           6.3961   -4.1536    0.0000 H       1  UNL1        0.0811
     46 H           7.5107    0.3880    0.0000 H       1  UNL1        0.0342
     47 H           7.9178    1.0747    0.0000 H       1  UNL1        0.0342
     48 H           7.3154    2.6349    0.0000 H       1  UNL1        0.0637
     49 H           5.8734    2.8426    0.0000 H       1  UNL1        0.0811
     50 H           4.1272    0.7764    0.0000 H       1  UNL1        0.0691
     51 H           7.7991   -2.3436    0.0000 H       1  UNL1        0.2100
     52 H           3.7773   -4.6882    0.0000 H       1  UNL1        0.0691
     53 H           2.3284   -2.2007    0.0000 H       1  UNL1        0.0691
     54 H           6.7252   -5.3436    0.0000 H       1  UNL1        0.0659
     55 H           8.1282   -2.9136    0.0000 H       1  UNL1        0.0623
     56 H           7.7991   -0.7236    0.0000 H       1  UNL1        0.2922
     57 H           8.7179    2.1995    0.0000 H       1  UNL1        0.2100
     58 H           3.4673    0.2228    0.0000 H       1  UNL1        0.2921
     59 H           7.8105    3.7311    0.0000 H       1  UNL1        0.0659
     60 H           5.0046    3.7203    0.0000 H       1  UNL1        0.0623
     61 H           9.5312   -3.7236    0.0000 H       1  UNL1        0.0655
     62 H           2.5245   -1.3261    0.0000 H       1  UNL1        0.2921
     63 H           4.9983    5.3402    0.0000 H       1  UNL1        0.0655
     64 H           2.0024   -4.6777    0.0000 H       1  UNL1        0.2921
     65 H           8.6651   -6.8436    0.0000 H       1  UNL1        0.2923
     66 H          10.3972   -5.2236    0.0000 H       1  UNL1        0.2923
     67 H           8.1302    6.1623    0.0000 H       1  UNL1        0.2923
     68 H           5.8586    6.8436    0.0000 H       1  UNL1        0.2923
@<TRIPOS>BOND
     1     1    15    1
     2     1    22    1
     3     2    23    1
     4     2    24    1
     5    14     3    1
     6     3    51    1
     7     4    20    1
     8     4    56    1
     9     5    21    1
    10     5    57    1
    11     6    25    1
    12     6    58    1
    13     7    27    1
    14     7    62    1
    15     8    34    1
    16     8    64    1
    17     9    37    1
    18     9    65    1
    19    10    39    1
    20    10    66    1
    21    11    40    1
    22    11    67    1
    23    12    42    1
    24    12    68    1
    25    13    14    1
    26    13    16    1
    27    13    17    1
    28    13    43    1
    29    14    15    1
    30    14    44    1
    31    15    26    1
    32    15    45    1
    33    16    20   ar
    34    16    25   ar
    35    17    22   ar
    36    17    27   ar
    37    18    19    1
    38    18    20   ar
    39    18    24   ar
    40    19    21    1
    41    19    46    1
    42    19    47    1
    43    21    23    1
    44    21    48    1
    45    22    29   ar
    46    23    30    1
    47    23    49    1
    48    24    28   ar
    49    25    28   ar
    50    26    32   ar
    51    26    33   ar
    52    27    31   ar
    53    28    50    1
    54    29    34   ar
    55    29    52    1
    56    30    35   ar
    57    30    36   ar
    58    31    34   ar
    59    31    53    1
    60    32    37   ar
    61    32    54    1
    62    33    38   ar
    63    33    55    1
    64    35    40   ar
    65    35    59    1
    66    36    41   ar
    67    36    60    1
    68    37    39   ar
    69    38    39   ar
    70    38    61    1
    71    40    42   ar
    72    41    42   ar
    73    41    63    1
