@<TRIPOS>MOLECULE
IMPHY015416
 47 46 0 0 0
SMALL
GASTEIGER

@<TRIPOS>ATOM
      1 C           5.4641    0.2500    0.0000 C.3     1  UNL1       -0.0439
      2 C           6.3301    0.7500    0.0000 C.3     1  UNL1       -0.0505
      3 C           7.1962    0.2500    0.0000 C.3     1  UNL1       -0.0528
      4 C           4.5981    0.7500    0.0000 C.3     1  UNL1       -0.0505
      5 C           8.0622    0.7500    0.0000 C.3     1  UNL1       -0.0530
      6 C           8.9282    0.2500    0.0000 C.3     1  UNL1       -0.0531
      7 C           3.7320    0.2500    0.0000 C.3     1  UNL1       -0.0531
      8 C           9.7942    0.7500    0.0000 C.3     1  UNL1       -0.0531
      9 C           5.4641   -0.7500    0.0000 C.3     1  UNL1       -0.0624
     10 C          10.6603    0.2500    0.0000 C.3     1  UNL1       -0.0531
     11 C           2.8660    0.7500    0.0000 C.3     1  UNL1       -0.0559
     12 C          11.5263    0.7500    0.0000 C.3     1  UNL1       -0.0533
     13 C          12.3923    0.2500    0.0000 C.3     1  UNL1       -0.0559
     14 C           2.0000    0.2500    0.0000 C.3     1  UNL1       -0.0653
     15 C          13.2583    0.7500    0.0000 C.3     1  UNL1       -0.0653
     16 H           6.0010   -0.0600    0.0000 H       1  UNL1        0.0298
     17 H           6.7287    1.2250    0.0000 H       1  UNL1        0.0268
     18 H           5.9316    1.2250    0.0000 H       1  UNL1        0.0268
     19 H           6.7976   -0.2249    0.0000 H       1  UNL1        0.0265
     20 H           7.5947   -0.2249    0.0000 H       1  UNL1        0.0265
     21 H           4.9966    1.2250    0.0000 H       1  UNL1        0.0268
     22 H           4.1996    1.2250    0.0000 H       1  UNL1        0.0268
     23 H           8.4607    1.2250    0.0000 H       1  UNL1        0.0265
     24 H           7.6636    1.2250    0.0000 H       1  UNL1        0.0265
     25 H           8.5297   -0.2249    0.0000 H       1  UNL1        0.0265
     26 H           9.3267   -0.2249    0.0000 H       1  UNL1        0.0265
     27 H           3.3335   -0.2249    0.0000 H       1  UNL1        0.0265
     28 H           4.1306   -0.2249    0.0000 H       1  UNL1        0.0265
     29 H          10.1928    1.2250    0.0000 H       1  UNL1        0.0265
     30 H           9.3957    1.2250    0.0000 H       1  UNL1        0.0265
     31 H           4.8441   -0.7500    0.0000 H       1  UNL1        0.0232
     32 H           5.4641   -1.3700    0.0000 H       1  UNL1        0.0232
     33 H           6.0841   -0.7500    0.0000 H       1  UNL1        0.0232
     34 H          10.2617   -0.2249    0.0000 H       1  UNL1        0.0265
     35 H          11.0588   -0.2249    0.0000 H       1  UNL1        0.0265
     36 H           3.2646    1.2250    0.0000 H       1  UNL1        0.0263
     37 H           2.4675    1.2250    0.0000 H       1  UNL1        0.0263
     38 H          11.9248    1.2250    0.0000 H       1  UNL1        0.0265
     39 H          11.1278    1.2250    0.0000 H       1  UNL1        0.0265
     40 H          11.9938   -0.2249    0.0000 H       1  UNL1        0.0263
     41 H          12.7908   -0.2249    0.0000 H       1  UNL1        0.0263
     42 H           1.6900    0.7869    0.0000 H       1  UNL1        0.0230
     43 H           1.4631   -0.0600    0.0000 H       1  UNL1        0.0230
     44 H           2.3100   -0.2869    0.0000 H       1  UNL1        0.0230
     45 H          13.5683    0.2131    0.0000 H       1  UNL1        0.0230
     46 H          13.7953    1.0600    0.0000 H       1  UNL1        0.0230
     47 H          12.9483    1.2869    0.0000 H       1  UNL1        0.0230
@<TRIPOS>BOND
     1     1     2    1
     2     1     4    1
     3     1     9    1
     4     1    16    1
     5     2     3    1
     6     2    17    1
     7     2    18    1
     8     3     5    1
     9     3    19    1
    10     3    20    1
    11     4     7    1
    12     4    21    1
    13     4    22    1
    14     5     6    1
    15     5    23    1
    16     5    24    1
    17     6     8    1
    18     6    25    1
    19     6    26    1
    20     7    11    1
    21     7    27    1
    22     7    28    1
    23     8    10    1
    24     8    29    1
    25     8    30    1
    26     9    31    1
    27     9    32    1
    28     9    33    1
    29    10    12    1
    30    10    34    1
    31    10    35    1
    32    11    14    1
    33    11    36    1
    34    11    37    1
    35    12    13    1
    36    12    38    1
    37    12    39    1
    38    13    15    1
    39    13    40    1
    40    13    41    1
    41    14    42    1
    42    14    43    1
    43    14    44    1
    44    15    45    1
    45    15    46    1
    46    15    47    1
