@<TRIPOS>MOLECULE
IMPHY013989
 41 41 0 0 0
SMALL
GASTEIGER

@<TRIPOS>ATOM
      1 O           4.0000    0.0000    0.0000 O.3     1  UNL1       -0.3881
      2 O           4.7320    1.0000    0.0000 O.2     1  UNL1       -0.2926
      3 C           3.0000   -1.0000    0.0000 C.3     1  UNL1       -0.0083
      4 C           3.0000    0.0000    0.0000 C.3     1  UNL1        0.0734
      5 C           2.1340   -1.5000    0.0000 C.3     1  UNL1       -0.0436
      6 C           3.8660   -1.5000    0.0000 C.3     1  UNL1       -0.0291
      7 C           2.1340   -2.5000    0.0000 C.3     1  UNL1       -0.0317
      8 C           3.0000    1.0000    0.0000 C.3     1  UNL1        0.0387
      9 C           3.0000   -3.0000    0.0000 C.2     1  UNL1       -0.0765
     10 C           2.0000    0.0000    0.0000 C.3     1  UNL1       -0.0354
     11 C           3.8660   -2.5000    0.0000 C.2     1  UNL1       -0.0847
     12 C           3.8660    1.5000    0.0000 C.2     1  UNL1        0.1587
     13 C           3.0000   -4.0000    0.0000 C.3     1  UNL1       -0.0438
     14 C           3.8660    2.5000    0.0000 C.2     1  UNL1       -0.0204
     15 C           4.7320    3.0000    0.0000 C.2     1  UNL1       -0.0724
     16 C           4.7320    4.0000    0.0000 C.3     1  UNL1       -0.0437
     17 C           5.5981    2.5000    0.0000 C.3     1  UNL1       -0.0437
     18 H           3.5369   -0.6900    0.0000 H       1  UNL1        0.0332
     19 H           1.9219   -0.9174    0.0000 H       1  UNL1        0.0272
     20 H           1.5234   -1.6077    0.0000 H       1  UNL1        0.0272
     21 H           4.4766   -1.6077    0.0000 H       1  UNL1        0.0311
     22 H           4.0781   -0.9174    0.0000 H       1  UNL1        0.0311
     23 H           1.5234   -2.3923    0.0000 H       1  UNL1        0.0310
     24 H           1.9219   -3.0826    0.0000 H       1  UNL1        0.0310
     25 H           2.7880    1.5826    0.0000 H       1  UNL1        0.0373
     26 H           2.3894    0.8923    0.0000 H       1  UNL1        0.0373
     27 H           2.0000    0.6200    0.0000 H       1  UNL1        0.0257
     28 H           1.3800    0.0000    0.0000 H       1  UNL1        0.0257
     29 H           2.0000   -0.6200    0.0000 H       1  UNL1        0.0257
     30 H           4.4030   -2.8100    0.0000 H       1  UNL1        0.0572
     31 H           4.3100    0.5369    0.0000 H       1  UNL1        0.2102
     32 H           2.3800   -4.0000    0.0000 H       1  UNL1        0.0274
     33 H           3.0000   -4.6200    0.0000 H       1  UNL1        0.0274
     34 H           3.6200   -4.0000    0.0000 H       1  UNL1        0.0274
     35 H           3.3291    2.8100    0.0000 H       1  UNL1        0.0652
     36 H           5.3520    4.0000    0.0000 H       1  UNL1        0.0274
     37 H           4.7320    4.6200    0.0000 H       1  UNL1        0.0274
     38 H           4.1120    4.0000    0.0000 H       1  UNL1        0.0274
     39 H           5.2881    1.9631    0.0000 H       1  UNL1        0.0274
     40 H           6.1350    2.1900    0.0000 H       1  UNL1        0.0274
     41 H           5.9081    3.0369    0.0000 H       1  UNL1        0.0274
@<TRIPOS>BOND
     1     1     4    1
     2     1    31    1
     3     2    12    2
     4     3     4    1
     5     3     5    1
     6     3     6    1
     7     3    18    1
     8     4     8    1
     9     4    10    1
    10     5     7    1
    11     5    19    1
    12     5    20    1
    13     6    11    1
    14     6    21    1
    15     6    22    1
    16     7     9    1
    17     7    23    1
    18     7    24    1
    19     8    12    1
    20     8    25    1
    21     8    26    1
    22     9    11    2
    23     9    13    1
    24    10    27    1
    25    10    28    1
    26    10    29    1
    27    11    30    1
    28    12    14    1
    29    13    32    1
    30    13    33    1
    31    13    34    1
    32    14    15    2
    33    14    35    1
    34    15    16    1
    35    15    17    1
    36    16    36    1
    37    16    37    1
    38    16    38    1
    39    17    39    1
    40    17    40    1
    41    17    41    1
