@<TRIPOS>MOLECULE
IMPHY010807
 95 100 0 0 0
SMALL
GASTEIGER

@<TRIPOS>ATOM
      1 O           6.4453    6.4974    0.0000 O.3     1  UNL1       -0.5030
      2 O           4.5627   -6.5099    0.0000 O.3     1  UNL1       -0.5030
      3 O           4.7132    3.4974    0.0000 O.3     1  UNL1       -0.4913
      4 O           4.7132    5.4974    0.0000 O.3     1  UNL1       -0.4885
      5 O           2.9005   -3.4707    0.0000 O.3     1  UNL1       -0.4913
      6 O           2.8542   -5.4701    0.0000 O.3     1  UNL1       -0.4885
      7 O           9.8909   -0.5570    0.0000 O.3     1  UNL1       -0.4523
      8 O          11.6344    0.4229    0.0000 O.3     1  UNL1       -0.4914
      9 N           9.1113    3.9766    0.0000 N.3     1  UNL1       -0.2978
     10 N           7.2863   -4.0514    0.0000 N.3     1  UNL1       -0.2978
     11 C           8.2052    3.4628    0.0000 C.3     1  UNL1        0.0398
     12 C           6.3924   -3.5168    0.0000 C.3     1  UNL1        0.0398
     13 C           7.3113    3.9974    0.0000 C.ar    1  UNL1       -0.0196
     14 C           5.4863   -4.0306    0.0000 C.ar    1  UNL1       -0.0196
     15 C           9.1113    5.0182    0.0000 C.3     1  UNL1        0.0033
     16 C           7.2622   -5.0928    0.0000 C.3     1  UNL1        0.0033
     17 C           8.2052    5.5321    0.0000 C.3     1  UNL1       -0.0110
     18 C           7.3113    4.9974    0.0000 C.ar    1  UNL1        0.0038
     19 C           6.3445   -5.5855    0.0000 C.3     1  UNL1       -0.0110
     20 C           5.4632   -5.0303    0.0000 C.ar    1  UNL1        0.0038
     21 C           8.1937    2.4628    0.0000 C.3     1  UNL1       -0.0078
     22 C           6.4039   -2.5168    0.0000 C.3     1  UNL1       -0.0079
     23 C           6.4453    3.4974    0.0000 C.ar    1  UNL1       -0.0111
     24 C           9.9754    3.4733    0.0000 C.3     1  UNL1       -0.0122
     25 C           4.6321   -3.5107    0.0000 C.ar    1  UNL1       -0.0111
     26 C           6.4453    5.4974    0.0000 C.ar    1  UNL1        0.1658
     27 C           8.1618   -3.5682    0.0000 C.3     1  UNL1       -0.0122
     28 C           9.0539    1.9528    0.0000 C.ar    1  UNL1       -0.0419
     29 C           4.5858   -5.5102    0.0000 C.ar    1  UNL1        0.1658
     30 C           7.2757   -2.0269    0.0000 C.ar    1  UNL1       -0.0453
     31 C           5.5792    3.9974    0.0000 C.ar    1  UNL1        0.1655
     32 C           5.5792    4.9974    0.0000 C.ar    1  UNL1        0.2036
     33 C           3.7547   -3.9906    0.0000 C.ar    1  UNL1        0.1655
     34 C           3.7316   -4.9903    0.0000 C.ar    1  UNL1        0.2036
     35 C           9.0423    0.9529    0.0000 C.ar    1  UNL1       -0.0124
     36 C           9.9256    2.4428    0.0000 C.ar    1  UNL1       -0.0548
     37 C           8.1359   -2.5368    0.0000 C.ar    1  UNL1       -0.0550
     38 C           7.2872   -1.0269    0.0000 C.ar    1  UNL1       -0.0550
     39 C           9.9025    0.4429    0.0000 C.ar    1  UNL1        0.1701
     40 C           9.0192   -1.0470    0.0000 C.ar    1  UNL1        0.1286
     41 C           9.0076   -2.0469    0.0000 C.ar    1  UNL1       -0.0191
     42 C           8.1590   -0.5370    0.0000 C.ar    1  UNL1       -0.0191
     43 C          10.7858    1.9328    0.0000 C.ar    1  UNL1       -0.0160
     44 C          10.7742    0.9329    0.0000 C.ar    1  UNL1        0.1621
     45 C           4.7132    2.4974    0.0000 C.3     1  UNL1        0.0790
     46 C           3.8472    4.9974    0.0000 C.3     1  UNL1        0.0791
     47 C           2.9236   -2.4709    0.0000 C.3     1  UNL1        0.0790
     48 C           2.0000   -4.9502    0.0000 C.3     1  UNL1        0.0791
     49 C          12.5062    0.9128    0.0000 C.3     1  UNL1        0.0790
     50 H           8.7392    3.1476    0.0000 H       1  UNL1        0.0515
     51 H           6.9334   -3.2140    0.0000 H       1  UNL1        0.0515
     52 H           9.7222    4.9121    0.0000 H       1  UNL1        0.0430
     53 H           9.3204    5.6019    0.0000 H       1  UNL1        0.0430
     54 H           7.4577   -5.6811    0.0000 H       1  UNL1        0.0430
     55 H           7.8754   -5.0008    0.0000 H       1  UNL1        0.0430
     56 H           8.5989    6.0111    0.0000 H       1  UNL1        0.0327
     57 H           7.8006    6.0019    0.0000 H       1  UNL1        0.0327
     58 H           5.9292   -6.0458    0.0000 H       1  UNL1        0.0327
     59 H           6.7270   -6.0735    0.0000 H       1  UNL1        0.0327
     60 H           7.5844    2.5775    0.0000 H       1  UNL1        0.0332
     61 H           7.9749    1.8827    0.0000 H       1  UNL1        0.0332
     62 H           6.1986   -1.9318    0.0000 H       1  UNL1        0.0332
     63 H           5.7922   -2.6174    0.0000 H       1  UNL1        0.0332
     64 H           6.4453    2.8774    0.0000 H       1  UNL1        0.0659
     65 H           9.6633    2.9375    0.0000 H       1  UNL1        0.0391
     66 H          10.5111    3.1612    0.0000 H       1  UNL1        0.0391
     67 H          10.2875    4.0090    0.0000 H       1  UNL1        0.0391
     68 H           4.6464   -2.8909    0.0000 H       1  UNL1        0.0659
     69 H           8.4614   -4.1110    0.0000 H       1  UNL1        0.0391
     70 H           8.7046   -3.2686    0.0000 H       1  UNL1        0.0391
     71 H           7.8622   -3.0254    0.0000 H       1  UNL1        0.0391
     72 H           8.5018    0.6491    0.0000 H       1  UNL1        0.0658
     73 H           9.9328    3.0627    0.0000 H       1  UNL1        0.0621
     74 H           8.1287   -3.1568    0.0000 H       1  UNL1        0.0621
     75 H           6.7539   -0.7108    0.0000 H       1  UNL1        0.0621
     76 H           5.9083    6.8074    0.0000 H       1  UNL1        0.2923
     77 H           9.5409   -2.3631    0.0000 H       1  UNL1        0.0654
     78 H           8.1662    0.0830    0.0000 H       1  UNL1        0.0654
     79 H           4.0187   -6.8074    0.0000 H       1  UNL1        0.2923
     80 H          11.3263    2.2366    0.0000 H       1  UNL1        0.0655
     81 H           4.0932    2.4974    0.0000 H       1  UNL1        0.0660
     82 H           4.7132    1.8774    0.0000 H       1  UNL1        0.0660
     83 H           5.3332    2.4974    0.0000 H       1  UNL1        0.0660
     84 H           3.5372    5.5343    0.0000 H       1  UNL1        0.0660
     85 H           3.3103    4.6874    0.0000 H       1  UNL1        0.0660
     86 H           4.1572    4.4605    0.0000 H       1  UNL1        0.0660
     87 H           3.5434   -2.4853    0.0000 H       1  UNL1        0.0660
     88 H           2.9379   -1.8511    0.0000 H       1  UNL1        0.0660
     89 H           2.3038   -2.4566    0.0000 H       1  UNL1        0.0660
     90 H           2.3223   -4.4206    0.0000 H       1  UNL1        0.0660
     91 H           1.4704   -4.6279    0.0000 H       1  UNL1        0.0660
     92 H           1.6777   -5.4798    0.0000 H       1  UNL1        0.0660
     93 H          12.8099    0.3724    0.0000 H       1  UNL1        0.0660
     94 H          13.0467    1.2166    0.0000 H       1  UNL1        0.0660
     95 H          12.2024    1.4533    0.0000 H       1  UNL1        0.0660
@<TRIPOS>BOND
     1     1    26    1
     2     1    76    1
     3     2    29    1
     4     2    79    1
     5     3    31    1
     6     3    45    1
     7     4    32    1
     8     4    46    1
     9     5    33    1
    10     5    47    1
    11     6    34    1
    12     6    48    1
    13     7    39    1
    14     7    40    1
    15     8    44    1
    16     8    49    1
    17     9    11    1
    18     9    15    1
    19     9    24    1
    20    10    12    1
    21    10    16    1
    22    10    27    1
    23    11    13    1
    24    11    21    1
    25    11    50    1
    26    12    14    1
    27    12    22    1
    28    12    51    1
    29    13    18   ar
    30    13    23   ar
    31    14    20   ar
    32    14    25   ar
    33    15    17    1
    34    15    52    1
    35    15    53    1
    36    16    19    1
    37    16    54    1
    38    16    55    1
    39    17    18    1
    40    17    56    1
    41    17    57    1
    42    18    26   ar
    43    19    20    1
    44    19    58    1
    45    19    59    1
    46    20    29   ar
    47    21    28    1
    48    21    60    1
    49    21    61    1
    50    22    30    1
    51    22    62    1
    52    22    63    1
    53    23    31   ar
    54    23    64    1
    55    24    65    1
    56    24    66    1
    57    24    67    1
    58    25    33   ar
    59    25    68    1
    60    26    32   ar
    61    27    69    1
    62    27    70    1
    63    27    71    1
    64    28    35   ar
    65    28    36   ar
    66    29    34   ar
    67    30    37   ar
    68    30    38   ar
    69    31    32   ar
    70    33    34   ar
    71    35    39   ar
    72    35    72    1
    73    36    43   ar
    74    36    73    1
    75    37    41   ar
    76    37    74    1
    77    38    42   ar
    78    38    75    1
    79    39    44   ar
    80    40    41   ar
    81    40    42   ar
    82    41    77    1
    83    42    78    1
    84    43    44   ar
    85    43    80    1
    86    45    81    1
    87    45    82    1
    88    45    83    1
    89    46    84    1
    90    46    85    1
    91    46    86    1
    92    47    87    1
    93    47    88    1
    94    47    89    1
    95    48    90    1
    96    48    91    1
    97    48    92    1
    98    49    93    1
    99    49    94    1
   100    49    95    1
