@<TRIPOS>MOLECULE
IMPHY000658
 52 54 0 0 0
SMALL
GASTEIGER

@<TRIPOS>ATOM
      1 CL          4.2463   -4.0820    0.0000 Cl      1  UNL1       -0.1224
      2 CL          5.6499    4.2145    0.0000 Cl      1  UNL1       -0.1219
      3 O           3.7230   -2.1092    0.0000 O.3     1  UNL1       -0.4569
      4 O           5.4378   -4.0044    0.0000 O.3     1  UNL1       -0.3844
      5 O           7.0268   -4.0977    0.0000 O.3     1  UNL1       -0.3889
      6 O           4.5447    1.0562    0.0000 O.3     1  UNL1       -0.4583
      7 O           2.0000   -1.6770    0.0000 O.2     1  UNL1       -0.2453
      8 O           6.1053    1.8077    0.0000 O.2     1  UNL1       -0.2475
      9 O           4.2403    3.6844    0.0000 O.3     1  UNL1       -0.3766
     10 C           5.4786   -2.0354    0.0000 C.3     1  UNL1        0.0358
     11 C           6.3796   -1.6015    0.0000 C.3     1  UNL1       -0.0086
     12 C           5.6146   -3.0201    0.0000 C.3     1  UNL1        0.1118
     13 C           4.5777   -1.6015    0.0000 C.3     1  UNL1        0.1198
     14 C           6.5929   -3.1968    0.0000 C.3     1  UNL1        0.0859
     15 C           7.0647   -2.3218    0.0000 C.3     1  UNL1       -0.0171
     16 C           4.3551   -0.6266    0.0000 C.3     1  UNL1        0.0651
     17 C           6.6021   -0.6266    0.0000 C.2     1  UNL1       -0.0695
     18 C           4.9786    0.1553    0.0000 C.3     1  UNL1        0.1172
     19 C           5.9786    0.1553    0.0000 C.3     1  UNL1        0.0063
     20 C           4.6239   -3.1561    0.0000 C.3     1  UNL1        0.0542
     21 C           3.3648   -0.5400    0.0000 C.2     1  UNL1        0.0396
     22 C           2.9749   -1.4545    0.0000 C.2     1  UNL1        0.3354
     23 C           7.5770   -0.4041    0.0000 C.2     1  UNL1       -0.0991
     24 C           2.8504    0.3175    0.0000 C.2     1  UNL1       -0.0882
     25 C           5.1081    1.8825    0.0000 C.2     1  UNL1        0.3403
     26 C           4.6742    2.7834    0.0000 C.3     1  UNL1        0.1725
     27 C           5.5752    3.2173    0.0000 C.3     1  UNL1        0.0616
     28 C           3.7732    2.3495    0.0000 C.3     1  UNL1       -0.0244
     29 H           4.7916   -2.5359    0.0000 H       1  UNL1        0.0372
     30 H           7.1993   -1.3764    0.0000 H       1  UNL1        0.0351
     31 H           4.6047   -2.2209    0.0000 H       1  UNL1        0.0745
     32 H           7.2127   -3.2110    0.0000 H       1  UNL1        0.0622
     33 H           7.5765   -2.6718    0.0000 H       1  UNL1        0.0297
     34 H           7.4666   -1.8497    0.0000 H       1  UNL1        0.0297
     35 H           4.0200    0.1546    0.0000 H       1  UNL1        0.0423
     36 H           5.3085    0.6802    0.0000 H       1  UNL1        0.0744
     37 H           6.5372    0.4243    0.0000 H       1  UNL1        0.0346
     38 H           5.8407    0.7597    0.0000 H       1  UNL1        0.0346
     39 H           4.6476   -2.5365    0.0000 H       1  UNL1        0.0459
     40 H           4.0179   -3.0252    0.0000 H       1  UNL1        0.0459
     41 H           4.8545   -4.2145    0.0000 H       1  UNL1        0.2103
     42 H           7.6450   -4.1441    0.0000 H       1  UNL1        0.2099
     43 H           7.9988   -0.8586    0.0000 H       1  UNL1        0.0535
     44 H           7.7598    0.1884    0.0000 H       1  UNL1        0.0535
     45 H           3.1514    0.8596    0.0000 H       1  UNL1        0.0540
     46 H           2.2305    0.3072    0.0000 H       1  UNL1        0.0540
     47 H           5.7431    2.6205    0.0000 H       1  UNL1        0.0463
     48 H           6.1921    3.2790    0.0000 H       1  UNL1        0.0463
     49 H           3.5042    2.9082    0.0000 H       1  UNL1        0.0263
     50 H           3.2146    2.0805    0.0000 H       1  UNL1        0.0263
     51 H           4.0422    1.7909    0.0000 H       1  UNL1        0.0263
     52 H           4.5896    4.1967    0.0000 H       1  UNL1        0.2109
@<TRIPOS>BOND
     1     1    20    1
     2     2    27    1
     3     3    13    1
     4     3    22    1
     5    12     4    1
     6     4    41    1
     7    14     5    1
     8     5    42    1
     9    18     6    1
    10     6    25    1
    11     7    22    2
    12     8    25    2
    13    26     9    1
    14     9    52    1
    15    10    11    1
    16    10    12    1
    17    10    13    1
    18    10    29    1
    19    11    15    1
    20    11    17    1
    21    11    30    1
    22    12    14    1
    23    12    20    1
    24    13    16    1
    25    13    31    1
    26    14    15    1
    27    14    32    1
    28    15    33    1
    29    15    34    1
    30    16    18    1
    31    16    21    1
    32    16    35    1
    33    17    19    1
    34    17    23    2
    35    18    19    1
    36    18    36    1
    37    19    37    1
    38    19    38    1
    39    20    39    1
    40    20    40    1
    41    21    22    1
    42    21    24    2
    43    23    43    1
    44    23    44    1
    45    24    45    1
    46    24    46    1
    47    25    26    1
    48    26    27    1
    49    26    28    1
    50    27    47    1
    51    27    48    1
    52    28    49    1
    53    28    50    1
    54    28    51    1
