@<TRIPOS>MOLECULE
IMPHY006466
 55 54 0 0 0
SMALL
GASTEIGER

@<TRIPOS>ATOM
      1 O           7.1962   -4.2500    0.0000 O.3     1  UNL1       -0.3915
      2 O          13.2583    4.2500    0.0000 O.3     1  UNL1       -0.4806
      3 O          14.1244    2.7500    0.0000 O.2     1  UNL1       -0.2510
      4 C           6.3301   -2.7500    0.0000 C.3     1  UNL1       -0.0266
      5 C           5.4641   -3.2500    0.0000 C.3     1  UNL1       -0.0507
      6 C           7.1962   -3.2500    0.0000 C.3     1  UNL1        0.0587
      7 C           4.5981   -2.7500    0.0000 C.3     1  UNL1       -0.0530
      8 C          10.6603   -0.2500    0.0000 C.3     1  UNL1       -0.0528
      9 C          11.5263    0.2500    0.0000 C.3     1  UNL1       -0.0530
     10 C          10.6603   -1.2500    0.0000 C.3     1  UNL1       -0.0496
     11 C           8.0622   -2.7500    0.0000 C.3     1  UNL1       -0.0086
     12 C           3.7320   -3.2500    0.0000 C.3     1  UNL1       -0.0533
     13 C          11.5263    1.2500    0.0000 C.3     1  UNL1       -0.0526
     14 C           9.7942   -1.7500    0.0000 C.3     1  UNL1       -0.0348
     15 C          12.3923    1.7500    0.0000 C.3     1  UNL1       -0.0430
     16 C           2.8660   -2.7500    0.0000 C.3     1  UNL1       -0.0559
     17 C           8.9282   -3.2500    0.0000 C.2     1  UNL1       -0.0855
     18 C           9.7942   -2.7500    0.0000 C.2     1  UNL1       -0.0879
     19 C          12.3923    2.7500    0.0000 C.3     1  UNL1        0.0448
     20 C           2.0000   -3.2500    0.0000 C.3     1  UNL1       -0.0653
     21 C          13.2583    3.2500    0.0000 C.2     1  UNL1        0.3047
     22 H           6.7287   -2.2750    0.0000 H       1  UNL1        0.0290
     23 H           5.9316   -2.2750    0.0000 H       1  UNL1        0.0290
     24 H           5.0656   -3.7250    0.0000 H       1  UNL1        0.0266
     25 H           5.8626   -3.7250    0.0000 H       1  UNL1        0.0266
     26 H           6.6592   -3.5600    0.0000 H       1  UNL1        0.0596
     27 H           4.9966   -2.2750    0.0000 H       1  UNL1        0.0265
     28 H           4.1996   -2.2750    0.0000 H       1  UNL1        0.0265
     29 H          10.4482    0.3326    0.0000 H       1  UNL1        0.0265
     30 H          10.0497   -0.3577    0.0000 H       1  UNL1        0.0265
     31 H          11.7383   -0.3326    0.0000 H       1  UNL1        0.0265
     32 H          12.1369    0.3577    0.0000 H       1  UNL1        0.0265
     33 H          10.8723   -1.8326    0.0000 H       1  UNL1        0.0268
     34 H          11.2708   -1.1423    0.0000 H       1  UNL1        0.0268
     35 H           8.4607   -2.2750    0.0000 H       1  UNL1        0.0332
     36 H           7.6636   -2.2750    0.0000 H       1  UNL1        0.0332
     37 H           3.3335   -3.7250    0.0000 H       1  UNL1        0.0265
     38 H           4.1306   -3.7250    0.0000 H       1  UNL1        0.0265
     39 H          11.3142    1.8326    0.0000 H       1  UNL1        0.0265
     40 H          10.9157    1.1423    0.0000 H       1  UNL1        0.0265
     41 H           9.5822   -1.1674    0.0000 H       1  UNL1        0.0307
     42 H           9.1836   -1.8577    0.0000 H       1  UNL1        0.0307
     43 H          12.6044    1.1674    0.0000 H       1  UNL1        0.0270
     44 H          13.0029    1.8577    0.0000 H       1  UNL1        0.0270
     45 H           3.2646   -2.2750    0.0000 H       1  UNL1        0.0263
     46 H           2.4675   -2.2750    0.0000 H       1  UNL1        0.0263
     47 H           8.9282   -3.8700    0.0000 H       1  UNL1        0.0570
     48 H          10.3312   -3.0600    0.0000 H       1  UNL1        0.0569
     49 H          12.1803    3.3326    0.0000 H       1  UNL1        0.0377
     50 H          11.7817    2.6423    0.0000 H       1  UNL1        0.0377
     51 H           6.6592   -4.5600    0.0000 H       1  UNL1        0.2098
     52 H           1.6900   -2.7131    0.0000 H       1  UNL1        0.0230
     53 H           1.4631   -3.5600    0.0000 H       1  UNL1        0.0230
     54 H           2.3100   -3.7869    0.0000 H       1  UNL1        0.0230
     55 H          13.7953    4.5600    0.0000 H       1  UNL1        0.2951
@<TRIPOS>BOND
     1     6     1    1
     2     1    51    1
     3     2    21    1
     4     2    55    1
     5     3    21    2
     6     4     5    1
     7     4     6    1
     8     4    22    1
     9     4    23    1
    10     5     7    1
    11     5    24    1
    12     5    25    1
    13     6    11    1
    14     6    26    1
    15     7    12    1
    16     7    27    1
    17     7    28    1
    18     8     9    1
    19     8    10    1
    20     8    29    1
    21     8    30    1
    22     9    13    1
    23     9    31    1
    24     9    32    1
    25    10    14    1
    26    10    33    1
    27    10    34    1
    28    11    17    1
    29    11    35    1
    30    11    36    1
    31    12    16    1
    32    12    37    1
    33    12    38    1
    34    13    15    1
    35    13    39    1
    36    13    40    1
    37    14    18    1
    38    14    41    1
    39    14    42    1
    40    15    19    1
    41    15    43    1
    42    15    44    1
    43    16    20    1
    44    16    45    1
    45    16    46    1
    46    17    18    2
    47    17    47    1
    48    18    48    1
    49    19    21    1
    50    19    49    1
    51    19    50    1
    52    20    52    1
    53    20    53    1
    54    20    54    1
