@<TRIPOS>MOLECULE
IMPHY006213
 51 54 0 0 0
SMALL
GASTEIGER

@<TRIPOS>ATOM
      1 O           8.1387    1.0347    0.0000 O.3     1  UNL1       -0.3609
      2 O           5.5466    0.5047    0.0000 O.3     1  UNL1       -0.3862
      3 O           5.5235    2.5045    0.0000 O.3     1  UNL1       -0.3865
      4 O           7.2438    3.5245    0.0000 O.3     1  UNL1       -0.3865
      5 O           5.5301   -0.5099    0.0000 O.2     1  UNL1       -0.4539
      6 O           8.9758    3.5445    0.0000 O.3     1  UNL1       -0.3924
      7 O           9.0602   -0.4858    0.0000 O.3     1  UNL1       -0.4945
      8 O           7.2785   -3.5445    0.0000 O.3     1  UNL1       -0.5058
      9 O           5.5301   -3.5099    0.0000 O.2     1  UNL1       -0.2863
     10 O           2.0000   -0.4858    0.0000 O.3     1  UNL1       -0.5032
     11 O           2.0000   -2.5341    0.0000 O.3     1  UNL1       -0.5033
     12 C           6.4068    1.0146    0.0000 C.3     1  UNL1        0.1139
     13 C           7.2785    0.5247    0.0000 C.3     1  UNL1        0.1193
     14 C           6.3952    2.0146    0.0000 C.3     1  UNL1        0.1121
     15 C           7.2554    2.5246    0.0000 C.3     1  UNL1        0.1117
     16 C           8.1272    2.0346    0.0000 C.3     1  UNL1        0.1108
     17 C           7.2901   -0.4753    0.0000 C.ar    1  UNL1        0.0684
     18 C           8.9873    2.5446    0.0000 C.3     1  UNL1        0.0729
     19 C           6.3961   -1.0099    0.0000 C.ar    1  UNL1        0.1520
     20 C           8.1962   -0.9891    0.0000 C.ar    1  UNL1        0.1328
     21 C           6.3961   -2.0099    0.0000 C.ar    1  UNL1        0.1064
     22 C           8.1962   -2.0307    0.0000 C.ar    1  UNL1        0.0228
     23 C           7.2901   -2.5446    0.0000 C.ar    1  UNL1        0.1347
     24 C           5.5301   -2.5099    0.0000 C.ar    1  UNL1        0.2038
     25 C           4.6641   -1.0099    0.0000 C.ar    1  UNL1        0.1430
     26 C           4.6641   -2.0099    0.0000 C.ar    1  UNL1        0.0684
     27 C           3.7702   -0.4753    0.0000 C.ar    1  UNL1        0.0265
     28 C           3.7702   -2.5446    0.0000 C.ar    1  UNL1       -0.0022
     29 C           9.9282   -0.9824    0.0000 C.3     1  UNL1        0.0788
     30 C           2.8641   -0.9891    0.0000 C.ar    1  UNL1        0.1618
     31 C           2.8641   -2.0307    0.0000 C.ar    1  UNL1        0.1591
     32 H           5.8663    1.3184    0.0000 H       1  UNL1        0.0649
     33 H           7.8190    0.2209    0.0000 H       1  UNL1        0.0676
     34 H           6.3880    2.6345    0.0000 H       1  UNL1        0.0647
     35 H           7.7887    2.8407    0.0000 H       1  UNL1        0.0647
     36 H           8.6676    1.7308    0.0000 H       1  UNL1        0.0646
     37 H           9.2061    1.9645    0.0000 H       1  UNL1        0.0584
     38 H           9.5966    2.6593    0.0000 H       1  UNL1        0.0584
     39 H           5.0061    0.8084    0.0000 H       1  UNL1        0.2100
     40 H           5.5163    3.1245    0.0000 H       1  UNL1        0.2100
     41 H           6.7034    3.8282    0.0000 H       1  UNL1        0.2100
     42 H           8.7319   -2.3428    0.0000 H       1  UNL1        0.0691
     43 H           9.5091    3.8607    0.0000 H       1  UNL1        0.2095
     44 H           3.7773    0.1447    0.0000 H       1  UNL1        0.0692
     45 H           3.7773   -3.1645    0.0000 H       1  UNL1        0.0663
     46 H           7.8118   -3.8607    0.0000 H       1  UNL1        0.2922
     47 H           9.6203   -1.5206    0.0000 H       1  UNL1        0.0660
     48 H          10.4663   -1.2904    0.0000 H       1  UNL1        0.0660
     49 H          10.2361   -0.4443    0.0000 H       1  UNL1        0.0660
     50 H           2.0024    0.1342    0.0000 H       1  UNL1        0.2923
     51 H           2.0024   -3.1541    0.0000 H       1  UNL1        0.2923
@<TRIPOS>BOND
     1     1    13    1
     2     1    16    1
     3     2    12    1
     4     2    39    1
     5     3    14    1
     6     3    40    1
     7     4    15    1
     8     4    41    1
     9     5    19   ar
    10     5    25   ar
    11     6    18    1
    12     6    43    1
    13     7    20    1
    14     7    29    1
    15     8    23    1
    16     8    46    1
    17     9    24    2
    18    10    30    1
    19    10    50    1
    20    11    31    1
    21    11    51    1
    22    12    13    1
    23    12    14    1
    24    12    32    1
    25    13    17    1
    26    13    33    1
    27    14    15    1
    28    14    34    1
    29    15    16    1
    30    15    35    1
    31    16    18    1
    32    16    36    1
    33    17    19   ar
    34    17    20   ar
    35    18    37    1
    36    18    38    1
    37    19    21   ar
    38    20    22   ar
    39    21    23   ar
    40    21    24   ar
    41    22    23   ar
    42    22    42    1
    43    24    26   ar
    44    25    26   ar
    45    25    27   ar
    46    26    28   ar
    47    27    30   ar
    48    27    44    1
    49    28    31   ar
    50    28    45    1
    51    29    47    1
    52    29    48    1
    53    29    49    1
    54    30    31   ar
