@<TRIPOS>MOLECULE
IMPHY012867
 58 60 0 0 0
SMALL
GASTEIGER

@<TRIPOS>ATOM
      1 O           8.0725   -0.1481    0.0000 O.2     1  UNL1       -0.4503
      2 O           4.5423   -0.1723    0.0000 O.3     1  UNL1       -0.5063
      3 O           6.3241    2.8864    0.0000 O.3     1  UNL1       -0.5058
      4 O           9.8045    1.8518    0.0000 O.3     1  UNL1       -0.5007
      5 O           8.0725    2.8519    0.0000 O.2     1  UNL1       -0.2830
      6 O           8.9385   -1.6482    0.0000 O.3     1  UNL1       -0.5059
      7 O          12.4026   -1.6482    0.0000 O.3     1  UNL1       -0.5066
      8 C           5.4639   -1.6927    0.0000 C.3     1  UNL1       -0.0128
      9 C           6.3241   -1.1827    0.0000 C.3     1  UNL1       -0.0139
     10 C           4.5921   -1.2028    0.0000 C.3     1  UNL1       -0.0277
     11 C           6.3125   -0.1828    0.0000 C.ar    1  UNL1        0.0377
     12 C           5.4754   -2.6927    0.0000 C.2     1  UNL1       -0.0760
     13 C           7.2064    0.3519    0.0000 C.ar    1  UNL1        0.1497
     14 C           7.2064    1.3518    0.0000 C.ar    1  UNL1        0.1094
     15 C           5.4064    0.3310    0.0000 C.ar    1  UNL1        0.1270
     16 C           3.7319   -1.7128    0.0000 C.2     1  UNL1       -0.0847
     17 C           4.6152   -3.2026    0.0000 C.3     1  UNL1       -0.0438
     18 C           6.3125    1.8865    0.0000 C.ar    1  UNL1        0.1348
     19 C           5.4064    1.3727    0.0000 C.ar    1  UNL1        0.0225
     20 C           8.0725    1.8518    0.0000 C.ar    1  UNL1        0.2379
     21 C           8.9385    0.3519    0.0000 C.ar    1  UNL1        0.1841
     22 C           6.3472   -3.1826    0.0000 C.2     1  UNL1       -0.0994
     23 C           2.8602   -1.2228    0.0000 C.2     1  UNL1       -0.0796
     24 C           8.9385    1.3518    0.0000 C.ar    1  UNL1        0.2083
     25 C           9.8045   -0.1481    0.0000 C.ar    1  UNL1        0.0626
     26 C           2.0000   -1.7328    0.0000 C.3     1  UNL1       -0.0440
     27 C           2.8486   -0.2229    0.0000 C.3     1  UNL1       -0.0440
     28 C           9.8045   -1.1482    0.0000 C.ar    1  UNL1        0.1311
     29 C          10.6705    0.3519    0.0000 C.ar    1  UNL1       -0.0440
     30 C          10.6705   -1.6482    0.0000 C.ar    1  UNL1        0.0220
     31 C          11.5366   -0.1481    0.0000 C.ar    1  UNL1       -0.0193
     32 C          11.5366   -1.1482    0.0000 C.ar    1  UNL1        0.1204
     33 H           5.4567   -1.0728    0.0000 H       1  UNL1        0.0352
     34 H           6.5428   -1.7629    0.0000 H       1  UNL1        0.0321
     35 H           6.9334   -1.0680    0.0000 H       1  UNL1        0.0321
     36 H           4.9851   -0.7232    0.0000 H       1  UNL1        0.0313
     37 H           4.1881   -0.7325    0.0000 H       1  UNL1        0.0313
     38 H           3.7391   -2.3327    0.0000 H       1  UNL1        0.0572
     39 H           4.2991   -2.6693    0.0000 H       1  UNL1        0.0274
     40 H           4.0819   -3.5188    0.0000 H       1  UNL1        0.0274
     41 H           4.9314   -3.7360    0.0000 H       1  UNL1        0.0274
     42 H           4.8707    1.6847    0.0000 H       1  UNL1        0.0691
     43 H           6.3544   -3.8026    0.0000 H       1  UNL1        0.0534
     44 H           6.8805   -2.8664    0.0000 H       1  UNL1        0.0534
     45 H           4.0042    0.1356    0.0000 H       1  UNL1        0.2921
     46 H           1.6838   -1.1995    0.0000 H       1  UNL1        0.0274
     47 H           1.4667   -2.0490    0.0000 H       1  UNL1        0.0274
     48 H           2.3162   -2.2661    0.0000 H       1  UNL1        0.0274
     49 H           3.4686   -0.2157    0.0000 H       1  UNL1        0.0274
     50 H           2.8414    0.3971    0.0000 H       1  UNL1        0.0274
     51 H           2.2287   -0.2300    0.0000 H       1  UNL1        0.0274
     52 H           5.7907    3.2026    0.0000 H       1  UNL1        0.2922
     53 H          10.6705    0.9719    0.0000 H       1  UNL1        0.0627
     54 H           9.8045    2.4718    0.0000 H       1  UNL1        0.2924
     55 H          10.6705   -2.2682    0.0000 H       1  UNL1        0.0691
     56 H          12.0735    0.1619    0.0000 H       1  UNL1        0.0654
     57 H           8.9385   -2.2682    0.0000 H       1  UNL1        0.2922
     58 H          12.9395   -1.3382    0.0000 H       1  UNL1        0.2921
@<TRIPOS>BOND
     1     1    13   ar
     2     1    21   ar
     3     2    15    1
     4     2    45    1
     5     3    18    1
     6     3    52    1
     7     4    24    1
     8     4    54    1
     9     5    20    2
    10     6    28    1
    11     6    57    1
    12     7    32    1
    13     7    58    1
    14     8     9    1
    15     8    10    1
    16     8    12    1
    17     8    33    1
    18     9    11    1
    19     9    34    1
    20     9    35    1
    21    10    16    1
    22    10    36    1
    23    10    37    1
    24    11    13   ar
    25    11    15   ar
    26    12    17    1
    27    12    22    2
    28    13    14   ar
    29    14    18   ar
    30    14    20   ar
    31    15    19   ar
    32    16    23    2
    33    16    38    1
    34    17    39    1
    35    17    40    1
    36    17    41    1
    37    18    19   ar
    38    19    42    1
    39    20    24   ar
    40    21    24   ar
    41    21    25    1
    42    22    43    1
    43    22    44    1
    44    23    26    1
    45    23    27    1
    46    25    28   ar
    47    25    29   ar
    48    26    46    1
    49    26    47    1
    50    26    48    1
    51    27    49    1
    52    27    50    1
    53    27    51    1
    54    28    30   ar
    55    29    31   ar
    56    29    53    1
    57    30    32   ar
    58    30    55    1
    59    31    32   ar
    60    31    56    1
