@<TRIPOS>MOLECULE
IMPHY015371
 20 20 0 0 0
SMALL
GASTEIGER

@<TRIPOS>ATOM
      1 O           3.7320    2.5000    0.0000 O.2     1  UNL1       -0.2957
      2 C           2.8660   -1.0000    0.0000 C.ar    1  UNL1       -0.0476
      3 C           2.8660   -2.0000    0.0000 C.3     1  UNL1       -0.0305
      4 C           3.7320   -0.5000    0.0000 C.ar    1  UNL1       -0.0579
      5 C           2.0000   -0.5000    0.0000 C.ar    1  UNL1       -0.0579
      6 C           2.0000   -2.5000    0.0000 C.3     1  UNL1       -0.0613
      7 C           2.8660    1.0000    0.0000 C.ar    1  UNL1        0.0142
      8 C           3.7320    0.5000    0.0000 C.ar    1  UNL1       -0.0513
      9 C           2.0000    0.5000    0.0000 C.ar    1  UNL1       -0.0513
     10 C           2.8660    2.0000    0.0000 C.2     1  UNL1        0.1502
     11 H           3.0781   -2.5826    0.0000 H       1  UNL1        0.0311
     12 H           3.4766   -1.8923    0.0000 H       1  UNL1        0.0311
     13 H           4.2690   -0.8100    0.0000 H       1  UNL1        0.0620
     14 H           1.4631   -0.8100    0.0000 H       1  UNL1        0.0620
     15 H           1.6900   -1.9631    0.0000 H       1  UNL1        0.0233
     16 H           1.4631   -2.8100    0.0000 H       1  UNL1        0.0233
     17 H           2.3100   -3.0369    0.0000 H       1  UNL1        0.0233
     18 H           4.2690    0.8100    0.0000 H       1  UNL1        0.0624
     19 H           1.4631    0.8100    0.0000 H       1  UNL1        0.0624
     20 H           2.3291    2.3100    0.0000 H       1  UNL1        0.1081
@<TRIPOS>BOND
     1     1    10    2
     2     2     3    1
     3     2     4   ar
     4     2     5   ar
     5     3     6    1
     6     3    11    1
     7     3    12    1
     8     4     8   ar
     9     4    13    1
    10     5     9   ar
    11     5    14    1
    12     6    15    1
    13     6    16    1
    14     6    17    1
    15     7     8   ar
    16     7     9   ar
    17     7    10    1
    18     8    18    1
    19     9    19    1
    20    10    20    1
