@<TRIPOS>MOLECULE
IMPHY017471
 30 30 0 0 0
SMALL
GASTEIGER

@<TRIPOS>ATOM
      1 O           3.7320    1.2500    0.0000 O.3     1  UNL1       -0.4640
      2 O           5.4641    1.2500    0.0000 O.2     1  UNL1       -0.2509
      3 C           2.8660   -0.2500    0.0000 C.3     1  UNL1        0.0156
      4 C           2.8660   -1.2500    0.0000 C.ar    1  UNL1       -0.0413
      5 C           3.7320    0.2500    0.0000 C.3     1  UNL1        0.0990
      6 C           2.0000    0.2500    0.0000 C.3     1  UNL1       -0.0553
      7 C           2.0000   -1.7500    0.0000 C.ar    1  UNL1       -0.0582
      8 C           3.7320   -1.7500    0.0000 C.ar    1  UNL1       -0.0582
      9 C           2.0000   -2.7500    0.0000 C.ar    1  UNL1       -0.0615
     10 C           3.7320   -2.7500    0.0000 C.ar    1  UNL1       -0.0615
     11 C           4.5981    1.7500    0.0000 C.2     1  UNL1        0.3068
     12 C           2.8660   -3.2500    0.0000 C.ar    1  UNL1       -0.0617
     13 C           4.5981    2.7500    0.0000 C.3     1  UNL1        0.0421
     14 C           5.4641    3.2500    0.0000 C.3     1  UNL1       -0.0552
     15 H           2.8660    0.3700    0.0000 H       1  UNL1        0.0379
     16 H           3.9441   -0.3326    0.0000 H       1  UNL1        0.0703
     17 H           4.3426    0.3577    0.0000 H       1  UNL1        0.0703
     18 H           2.3100    0.7869    0.0000 H       1  UNL1        0.0237
     19 H           1.4631    0.5600    0.0000 H       1  UNL1        0.0237
     20 H           1.6900   -0.2869    0.0000 H       1  UNL1        0.0237
     21 H           1.4631   -1.4400    0.0000 H       1  UNL1        0.0620
     22 H           4.2690   -1.4400    0.0000 H       1  UNL1        0.0620
     23 H           1.4631   -3.0600    0.0000 H       1  UNL1        0.0618
     24 H           4.2690   -3.0600    0.0000 H       1  UNL1        0.0618
     25 H           2.8660   -3.8700    0.0000 H       1  UNL1        0.0618
     26 H           4.3860    3.3326    0.0000 H       1  UNL1        0.0375
     27 H           3.9875    2.6423    0.0000 H       1  UNL1        0.0375
     28 H           5.7741    2.7131    0.0000 H       1  UNL1        0.0235
     29 H           6.0010    3.5600    0.0000 H       1  UNL1        0.0235
     30 H           5.1541    3.7869    0.0000 H       1  UNL1        0.0235
@<TRIPOS>BOND
     1     1     5    1
     2     1    11    1
     3     2    11    2
     4     3     4    1
     5     3     5    1
     6     3     6    1
     7     3    15    1
     8     4     7   ar
     9     4     8   ar
    10     5    16    1
    11     5    17    1
    12     6    18    1
    13     6    19    1
    14     6    20    1
    15     7     9   ar
    16     7    21    1
    17     8    10   ar
    18     8    22    1
    19     9    12   ar
    20     9    23    1
    21    10    12   ar
    22    10    24    1
    23    11    13    1
    24    12    25    1
    25    13    14    1
    26    13    26    1
    27    13    27    1
    28    14    28    1
    29    14    29    1
    30    14    30    1
