@<TRIPOS>MOLECULE
IMPHY006229
 47 50 0 0 0
SMALL
GASTEIGER

@<TRIPOS>ATOM
      1 O           4.3787    2.3228    0.0000 O.2     1  UNL1       -0.4985
      2 O           9.6149   -0.7640    0.0000 O.3     1  UNL1       -0.4500
      3 O           5.2592    2.2210    0.0000 O.2     1  UNL1       -0.5091
      4 O           9.9761   -2.4011    0.0000 O.3     1  UNL1       -0.4503
      5 O           2.0000   -0.2987    0.0000 O.2     1  UNL1       -0.2925
      6 N           7.5265    0.9119    0.0000 N.pl3   1  UNL1       -0.3428
      7 C           4.7149   -0.3399    0.0000 C.3     1  UNL1        0.0010
      8 C           4.9228    0.6383    0.0000 C.3     1  UNL1        0.0815
      9 C           3.7293   -0.6770    0.0000 C.3     1  UNL1        0.0173
     10 C           4.1595    1.3471    0.0000 C.2     1  UNL1        0.1115
     11 C           5.1216   -1.2534    0.0000 C.2     1  UNL1       -0.0789
     12 C           5.6659    1.3074    0.0000 C.2     1  UNL1        0.1183
     13 C           2.9499    0.0140    0.0000 C.2     1  UNL1        0.1598
     14 C           3.1664    1.0329    0.0000 C.2     1  UNL1        0.0190
     15 C           7.7253   -0.9798    0.0000 C.ar    1  UNL1        0.0221
     16 C           6.9821   -1.6489    0.0000 C.ar    1  UNL1       -0.0169
     17 C           5.9876   -1.7534    0.0000 C.2     1  UNL1       -0.0578
     18 C           7.9332   -0.0016    0.0000 C.3     1  UNL1        0.0381
     19 C           8.7208   -1.2863    0.0000 C.ar    1  UNL1        0.1717
     20 C           6.6604    1.4119    0.0000 C.2     1  UNL1        0.0282
     21 C           8.9452   -2.3035    0.0000 C.ar    1  UNL1        0.1669
     22 C           7.1830   -2.6710    0.0000 C.ar    1  UNL1       -0.0506
     23 C          10.3891   -1.4516    0.0000 C.3     1  UNL1        0.2409
     24 C           8.1711   -3.0005    0.0000 C.ar    1  UNL1       -0.0156
     25 C          11.3656   -1.2361    0.0000 C.3     1  UNL1        0.0098
     26 C           3.6434    3.0005    0.0000 C.3     1  UNL1        0.0784
     27 H           4.3751   -1.1190    0.0000 H       1  UNL1        0.0358
     28 H           4.9293    1.4883    0.0000 H       1  UNL1        0.0465
     29 H           3.2447   -1.0637    0.0000 H       1  UNL1        0.0351
     30 H           4.0274   -1.2206    0.0000 H       1  UNL1        0.0351
     31 H           4.6608   -1.6683    0.0000 H       1  UNL1        0.0575
     32 H           2.7073    1.4495    0.0000 H       1  UNL1        0.0686
     33 H           5.8587   -2.3599    0.0000 H       1  UNL1        0.0621
     34 H           8.4701   -0.3116    0.0000 H       1  UNL1        0.0512
     35 H           7.3166   -0.0664    0.0000 H       1  UNL1        0.0512
     36 H           6.7893    2.0184    0.0000 H       1  UNL1        0.0812
     37 H           7.9872    1.3268    0.0000 H       1  UNL1        0.1460
     38 H           6.7175   -3.0805    0.0000 H       1  UNL1        0.0625
     39 H          10.6031   -0.6290    0.0000 H       1  UNL1        0.1202
     40 H           8.2977   -3.6074    0.0000 H       1  UNL1        0.0655
     41 H           5.6236    2.7226    0.0000 H       1  UNL1        0.2917
     42 H          11.4992   -1.8416    0.0000 H       1  UNL1        0.0301
     43 H          11.9710   -1.1026    0.0000 H       1  UNL1        0.0301
     44 H          11.2320   -0.6307    0.0000 H       1  UNL1        0.0301
     45 H           4.0635    3.4564    0.0000 H       1  UNL1        0.0660
     46 H           3.1875    3.4206    0.0000 H       1  UNL1        0.0660
     47 H           3.2232    2.5446    0.0000 H       1  UNL1        0.0660
@<TRIPOS>BOND
     1     1    10    1
     2     1    26    1
     3     2    19    1
     4     2    23    1
     5     3    12    1
     6     3    41    1
     7     4    21    1
     8     4    23    1
     9     5    13    2
    10     6    18    1
    11     6    20    1
    12     6    37    1
    13     7     8    1
    14     7     9    1
    15     7    11    1
    16     7    27    1
    17     8    10    1
    18     8    12    1
    19     8    28    1
    20     9    13    1
    21     9    29    1
    22     9    30    1
    23    10    14    2
    24    11    17    2
    25    11    31    1
    26    12    20    2
    27    13    14    1
    28    14    32    1
    29    15    16   ar
    30    15    18    1
    31    15    19   ar
    32    16    17    1
    33    16    22   ar
    34    17    33    1
    35    18    34    1
    36    18    35    1
    37    19    21   ar
    38    20    36    1
    39    21    24   ar
    40    22    24   ar
    41    22    38    1
    42    23    25    1
    43    23    39    1
    44    24    40    1
    45    25    42    1
    46    25    43    1
    47    25    44    1
    48    26    45    1
    49    26    46    1
    50    26    47    1
