@<TRIPOS>MOLECULE
IMPHY003514
 100 103 0 0 0
SMALL
GASTEIGER

@<TRIPOS>ATOM
      1 O           7.9156    3.1870    0.0000 O.3     1  UNL1       -0.4572
      2 O           7.6978    6.2552    0.0000 O.3     1  UNL1       -0.3870
      3 O           9.6232    8.3599    0.0000 O.3     1  UNL1       -0.3797
      4 O           8.9024    1.7635    0.0000 O.2     1  UNL1       -0.2508
      5 O           8.7997    9.3432    0.0000 O.2     1  UNL1       -0.2893
      6 O          12.2784    6.2858    0.0000 O.3     1  UNL1       -0.3907
      7 C           9.5936    4.3501    0.0000 C.3     1  UNL1        0.0172
      8 C           8.7375    3.7567    0.0000 C.3     1  UNL1        0.1233
      9 C           9.6798    3.3116    0.0000 C.3     1  UNL1        0.0124
     10 C           9.4998    5.3875    0.0000 C.3     1  UNL1        0.0143
     11 C           8.5988    5.8214    0.0000 C.3     1  UNL1        0.0846
     12 C           7.7990    4.2086    0.0000 C.3     1  UNL1       -0.0068
     13 C           7.7292    5.2479    0.0000 C.3     1  UNL1       -0.0101
     14 C          10.6764    3.3940    0.0000 C.3     1  UNL1       -0.0558
     15 C           9.2528    2.4073    0.0000 C.3     1  UNL1       -0.0558
     16 C           8.3763    6.7963    0.0000 C.3     1  UNL1        0.0438
     17 C          10.4007    5.8214    0.0000 C.2     1  UNL1       -0.0763
     18 C           8.9998    7.5781    0.0000 C.3     1  UNL1        0.1403
     19 C           6.7312    5.1847    0.0000 C.3     1  UNL1       -0.0596
     20 C          10.6233    6.7963    0.0000 C.2     1  UNL1       -0.0449
     21 C           9.9998    7.5781    0.0000 C.3     1  UNL1        0.0073
     22 C           7.4465    7.1480    0.0000 C.2     1  UNL1       -0.0687
     23 C           7.9981    2.1904    0.0000 C.2     1  UNL1        0.3076
     24 C           8.4500    8.4063    0.0000 C.2     1  UNL1        0.1909
     25 C           7.4920    8.1410    0.0000 C.2     1  UNL1       -0.0086
     26 C          11.5982    7.0188    0.0000 C.3     1  UNL1        0.0654
     27 C           7.1762    1.6207    0.0000 C.3     1  UNL1        0.0450
     28 C           6.7101    8.7645    0.0000 C.3     1  UNL1       -0.0366
     29 C           7.2586    0.6241    0.0000 C.3     1  UNL1       -0.0430
     30 C           6.4367    0.0545    0.0000 C.3     1  UNL1       -0.0526
     31 C           6.5192   -0.9421    0.0000 C.3     1  UNL1       -0.0530
     32 C           5.6973   -1.5118    0.0000 C.3     1  UNL1       -0.0531
     33 C           5.7797   -2.5084    0.0000 C.3     1  UNL1       -0.0531
     34 C           4.9578   -3.0781    0.0000 C.3     1  UNL1       -0.0531
     35 C           5.0402   -4.0747    0.0000 C.3     1  UNL1       -0.0531
     36 C           4.2184   -4.6444    0.0000 C.3     1  UNL1       -0.0531
     37 C           4.3008   -5.6409    0.0000 C.3     1  UNL1       -0.0531
     38 C           3.4789   -6.2106    0.0000 C.3     1  UNL1       -0.0531
     39 C           3.5613   -7.2072    0.0000 C.3     1  UNL1       -0.0531
     40 C           2.7395   -7.7769    0.0000 C.3     1  UNL1       -0.0533
     41 C           2.8219   -8.7735    0.0000 C.3     1  UNL1       -0.0559
     42 C           2.0000   -9.3432    0.0000 C.3     1  UNL1       -0.0653
     43 H          10.4404    4.4235    0.0000 H       1  UNL1        0.0353
     44 H          10.2391    4.9681    0.0000 H       1  UNL1        0.0375
     45 H           7.1824    4.2735    0.0000 H       1  UNL1        0.0307
     46 H           7.6296    3.6122    0.0000 H       1  UNL1        0.0307
     47 H           7.5324    5.8358    0.0000 H       1  UNL1        0.0327
     48 H          10.7275    2.7761    0.0000 H       1  UNL1        0.0236
     49 H          11.2942    3.4451    0.0000 H       1  UNL1        0.0236
     50 H          10.6253    4.0118    0.0000 H       1  UNL1        0.0236
     51 H           8.6922    2.6720    0.0000 H       1  UNL1        0.0236
     52 H           8.9881    1.8466    0.0000 H       1  UNL1        0.0236
     53 H           9.8135    2.1426    0.0000 H       1  UNL1        0.0236
     54 H           9.2050    6.6071    0.0000 H       1  UNL1        0.0404
     55 H          10.8855    5.4348    0.0000 H       1  UNL1        0.0576
     56 H           6.6920    5.8035    0.0000 H       1  UNL1        0.0233
     57 H           6.1124    5.1455    0.0000 H       1  UNL1        0.0233
     58 H           6.7704    4.5660    0.0000 H       1  UNL1        0.0233
     59 H           7.0796    6.2089    0.0000 H       1  UNL1        0.2102
     60 H          10.5584    7.8471    0.0000 H       1  UNL1        0.0343
     61 H           9.8618    8.1826    0.0000 H       1  UNL1        0.0343
     62 H           6.9285    6.8073    0.0000 H       1  UNL1        0.0580
     63 H          10.2363    8.2675    0.0000 H       1  UNL1        0.2108
     64 H          12.1190    7.3552    0.0000 H       1  UNL1        0.0604
     65 H          11.3574    7.5901    0.0000 H       1  UNL1        0.0604
     66 H           6.9168    2.1839    0.0000 H       1  UNL1        0.0377
     67 H           6.5766    1.4631    0.0000 H       1  UNL1        0.0377
     68 H           7.0967    9.2492    0.0000 H       1  UNL1        0.0279
     69 H           6.2254    9.1511    0.0000 H       1  UNL1        0.0279
     70 H           6.3236    8.2798    0.0000 H       1  UNL1        0.0279
     71 H           7.5180    0.0610    0.0000 H       1  UNL1        0.0270
     72 H           7.8582    0.7818    0.0000 H       1  UNL1        0.0270
     73 H          12.8828    6.4237    0.0000 H       1  UNL1        0.2098
     74 H           6.1774    0.6176    0.0000 H       1  UNL1        0.0265
     75 H           5.8371   -0.1031    0.0000 H       1  UNL1        0.0265
     76 H           6.7785   -1.5053    0.0000 H       1  UNL1        0.0265
     77 H           7.1188   -0.7845    0.0000 H       1  UNL1        0.0265
     78 H           5.4379   -0.9487    0.0000 H       1  UNL1        0.0265
     79 H           5.0976   -1.6694    0.0000 H       1  UNL1        0.0265
     80 H           6.0390   -3.0715    0.0000 H       1  UNL1        0.0265
     81 H           6.3793   -2.3508    0.0000 H       1  UNL1        0.0265
     82 H           4.6985   -2.5149    0.0000 H       1  UNL1        0.0265
     83 H           4.3582   -3.2357    0.0000 H       1  UNL1        0.0265
     84 H           5.2996   -4.6378    0.0000 H       1  UNL1        0.0265
     85 H           5.6399   -3.9171    0.0000 H       1  UNL1        0.0265
     86 H           3.9590   -4.0812    0.0000 H       1  UNL1        0.0265
     87 H           3.6187   -4.8020    0.0000 H       1  UNL1        0.0265
     88 H           4.5601   -6.2041    0.0000 H       1  UNL1        0.0265
     89 H           4.9004   -5.4833    0.0000 H       1  UNL1        0.0265
     90 H           3.2196   -5.6475    0.0000 H       1  UNL1        0.0265
     91 H           2.8793   -6.3682    0.0000 H       1  UNL1        0.0265
     92 H           3.8207   -7.7704    0.0000 H       1  UNL1        0.0265
     93 H           4.1610   -7.0496    0.0000 H       1  UNL1        0.0265
     94 H           2.4801   -7.2137    0.0000 H       1  UNL1        0.0265
     95 H           2.1398   -7.9345    0.0000 H       1  UNL1        0.0265
     96 H           3.0812   -9.3366    0.0000 H       1  UNL1        0.0263
     97 H           3.4215   -8.6159    0.0000 H       1  UNL1        0.0263
     98 H           1.6468   -8.8336    0.0000 H       1  UNL1        0.0230
     99 H           1.4904   -9.6964    0.0000 H       1  UNL1        0.0230
    100 H           2.3532   -9.8527    0.0000 H       1  UNL1        0.0230
@<TRIPOS>BOND
     1     8     1    1
     2     1    23    1
     3    11     2    1
     4     2    59    1
     5    18     3    1
     6     3    63    1
     7     4    23    2
     8     5    24    2
     9     6    26    1
    10     6    73    1
    11     7     8    1
    12     7     9    1
    13     7    10    1
    14     7    43    1
    15     8     9    1
    16     8    12    1
    17     9    14    1
    18     9    15    1
    19    10    11    1
    20    10    17    1
    21    10    44    1
    22    11    13    1
    23    11    16    1
    24    12    13    1
    25    12    45    1
    26    12    46    1
    27    13    19    1
    28    13    47    1
    29    14    48    1
    30    14    49    1
    31    14    50    1
    32    15    51    1
    33    15    52    1
    34    15    53    1
    35    16    18    1
    36    16    22    1
    37    16    54    1
    38    17    20    2
    39    17    55    1
    40    18    21    1
    41    18    24    1
    42    19    56    1
    43    19    57    1
    44    19    58    1
    45    20    21    1
    46    20    26    1
    47    21    60    1
    48    21    61    1
    49    22    25    2
    50    22    62    1
    51    23    27    1
    52    24    25    1
    53    25    28    1
    54    26    64    1
    55    26    65    1
    56    27    29    1
    57    27    66    1
    58    27    67    1
    59    28    68    1
    60    28    69    1
    61    28    70    1
    62    29    30    1
    63    29    71    1
    64    29    72    1
    65    30    31    1
    66    30    74    1
    67    30    75    1
    68    31    32    1
    69    31    76    1
    70    31    77    1
    71    32    33    1
    72    32    78    1
    73    32    79    1
    74    33    34    1
    75    33    80    1
    76    33    81    1
    77    34    35    1
    78    34    82    1
    79    34    83    1
    80    35    36    1
    81    35    84    1
    82    35    85    1
    83    36    37    1
    84    36    86    1
    85    36    87    1
    86    37    38    1
    87    37    88    1
    88    37    89    1
    89    38    39    1
    90    38    90    1
    91    38    91    1
    92    39    40    1
    93    39    92    1
    94    39    93    1
    95    40    41    1
    96    40    94    1
    97    40    95    1
    98    41    42    1
    99    41    96    1
   100    41    97    1
   101    42    98    1
   102    42    99    1
   103    42   100    1
