@<TRIPOS>MOLECULE
IMPHY005016
 48 50 0 0 0
SMALL
GASTEIGER

@<TRIPOS>ATOM
      1 O           8.1301   -0.1754    0.0000 O.2     1  UNL1       -0.4507
      2 O           6.3817    2.8592    0.0000 O.3     1  UNL1       -0.5055
      3 O           4.6000   -0.1995    0.0000 O.3     1  UNL1       -0.5062
      4 O           9.8622    1.8246    0.0000 O.3     1  UNL1       -0.5007
      5 O           8.1301    2.8246    0.0000 O.2     1  UNL1       -0.2830
      6 O          10.7282   -2.6754    0.0000 O.3     1  UNL1       -0.4914
      7 O          12.4602   -1.6754    0.0000 O.3     1  UNL1       -0.5033
      8 C           7.2641    1.3246    0.0000 C.ar    1  UNL1        0.1094
      9 C           5.4641    1.3454    0.0000 C.ar    1  UNL1        0.0400
     10 C           7.2641    0.3246    0.0000 C.ar    1  UNL1        0.1466
     11 C           6.3701    1.8593    0.0000 C.ar    1  UNL1        0.1382
     12 C           4.6000    1.8488    0.0000 C.3     1  UNL1       -0.0023
     13 C           5.4641    0.3038    0.0000 C.ar    1  UNL1        0.1273
     14 C           6.3701   -0.2101    0.0000 C.ar    1  UNL1        0.0234
     15 C           8.9961    0.3246    0.0000 C.ar    1  UNL1        0.1807
     16 C           8.1301    1.8246    0.0000 C.ar    1  UNL1        0.2379
     17 C           8.9961    1.3246    0.0000 C.ar    1  UNL1        0.2082
     18 C           9.8622   -0.1754    0.0000 C.ar    1  UNL1        0.0247
     19 C           3.7320    1.3521    0.0000 C.2     1  UNL1       -0.0807
     20 C           2.8680    1.8554    0.0000 C.2     1  UNL1       -0.0793
     21 C           9.8622   -1.1754    0.0000 C.ar    1  UNL1       -0.0055
     22 C          10.7282    0.3246    0.0000 C.ar    1  UNL1       -0.0473
     23 C          10.7282   -1.6754    0.0000 C.ar    1  UNL1        0.1619
     24 C          11.5942   -0.1754    0.0000 C.ar    1  UNL1       -0.0159
     25 C          11.5942   -1.1754    0.0000 C.ar    1  UNL1        0.1585
     26 C           2.0000    1.3588    0.0000 C.3     1  UNL1       -0.0440
     27 C           2.8718    2.8554    0.0000 C.3     1  UNL1       -0.0440
     28 C          11.5942   -3.1754    0.0000 C.3     1  UNL1        0.0790
     29 H           5.0003    2.3222    0.0000 H       1  UNL1        0.0358
     30 H           4.2033    2.3252    0.0000 H       1  UNL1        0.0358
     31 H           6.3773   -0.8300    0.0000 H       1  UNL1        0.0691
     32 H           3.7296    0.7321    0.0000 H       1  UNL1        0.0575
     33 H           9.3252   -1.4854    0.0000 H       1  UNL1        0.0662
     34 H          10.7282    0.9446    0.0000 H       1  UNL1        0.0626
     35 H           5.8484    3.1754    0.0000 H       1  UNL1        0.2922
     36 H          12.1311    0.1346    0.0000 H       1  UNL1        0.0655
     37 H           4.6024   -0.8195    0.0000 H       1  UNL1        0.2921
     38 H           1.6921    1.8969    0.0000 H       1  UNL1        0.0274
     39 H           1.4619    1.0508    0.0000 H       1  UNL1        0.0274
     40 H           2.3079    0.8206    0.0000 H       1  UNL1        0.0274
     41 H           3.4918    2.8530    0.0000 H       1  UNL1        0.0274
     42 H           2.8742    3.4754    0.0000 H       1  UNL1        0.0274
     43 H           2.2518    2.8578    0.0000 H       1  UNL1        0.0274
     44 H           9.8622    2.4446    0.0000 H       1  UNL1        0.2924
     45 H          12.9972   -1.3654    0.0000 H       1  UNL1        0.2923
     46 H          11.2842   -3.7123    0.0000 H       1  UNL1        0.0660
     47 H          12.1311   -3.4854    0.0000 H       1  UNL1        0.0660
     48 H          11.9042   -2.6385    0.0000 H       1  UNL1        0.0660
@<TRIPOS>BOND
     1     1    10   ar
     2     1    15   ar
     3     2    11    1
     4     2    35    1
     5     3    13    1
     6     3    37    1
     7     4    17    1
     8     4    44    1
     9     5    16    2
    10     6    23    1
    11     6    28    1
    12     7    25    1
    13     7    45    1
    14     8    10   ar
    15     8    11   ar
    16     8    16   ar
    17     9    11   ar
    18     9    12    1
    19     9    13   ar
    20    10    14   ar
    21    12    19    1
    22    12    29    1
    23    12    30    1
    24    13    14   ar
    25    14    31    1
    26    15    17   ar
    27    15    18    1
    28    16    17   ar
    29    18    21   ar
    30    18    22   ar
    31    19    20    2
    32    19    32    1
    33    20    26    1
    34    20    27    1
    35    21    23   ar
    36    21    33    1
    37    22    24   ar
    38    22    34    1
    39    23    25   ar
    40    24    25   ar
    41    24    36    1
    42    26    38    1
    43    26    39    1
    44    26    40    1
    45    27    41    1
    46    27    42    1
    47    27    43    1
    48    28    46    1
    49    28    47    1
    50    28    48    1
