@<TRIPOS>MOLECULE
IMPHY000353
 71 76 0 0 0
SMALL
GASTEIGER

@<TRIPOS>ATOM
      1 O           2.0000    0.2394    0.0000 O.2     1  UNL1       -0.2971
      2 O           2.6318   -3.4787    0.0000 O.3     1  UNL1       -0.3918
      3 N           8.9057    1.4884    0.0000 N.3     1  UNL1       -0.2947
      4 C           5.0418   -0.0656    0.0000 C.3     1  UNL1       -0.0310
      5 C           4.6367    0.8422    0.0000 C.3     1  UNL1       -0.0276
      6 C           4.4469   -0.9131    0.0000 C.3     1  UNL1       -0.0193
      7 C           5.3737    1.5093    0.0000 C.3     1  UNL1       -0.0307
      8 C           6.2397    1.0093    0.0000 C.3     1  UNL1       -0.0150
      9 C           6.0305    0.0374    0.0000 C.3     1  UNL1       -0.0426
     10 C           3.4162   -0.8137    0.0000 C.3     1  UNL1        0.0255
     11 C           3.6086    0.9654    0.0000 C.3     1  UNL1        0.0095
     12 C           5.3737    2.5093    0.0000 C.3     1  UNL1       -0.0457
     13 C           7.1057    1.5093    0.0000 C.2     1  UNL1       -0.0527
     14 C           4.9091   -1.8876    0.0000 C.3     1  UNL1       -0.0444
     15 C           2.9942    0.1319    0.0000 C.2     1  UNL1        0.1373
     16 C           7.1057    2.5093    0.0000 C.2     1  UNL1       -0.0645
     17 C           2.7763   -1.6819    0.0000 C.3     1  UNL1       -0.0168
     18 C           5.4422   -1.0091    0.0000 C.3     1  UNL1       -0.0587
     19 C           6.2397    3.0093    0.0000 C.3     1  UNL1       -0.0309
     20 C           4.2894   -2.7704    0.0000 C.3     1  UNL1       -0.0263
     21 C           7.9997    3.0439    0.0000 C.3     1  UNL1       -0.0068
     22 C           7.9997    0.9746    0.0000 C.3     1  UNL1        0.0209
     23 C           3.2158   -2.6669    0.0000 C.3     1  UNL1        0.0559
     24 C           8.9057    2.5301    0.0000 C.3     1  UNL1        0.0170
     25 C           9.8369    3.0870    0.0000 C.3     1  UNL1       -0.0365
     26 C           9.8369    0.9315    0.0000 C.3     1  UNL1        0.0021
     27 C           7.9881    4.0439    0.0000 C.3     1  UNL1       -0.0573
     28 C          10.7807    1.4668    0.0000 C.3     1  UNL1       -0.0310
     29 C          10.7807    2.5518    0.0000 C.3     1  UNL1       -0.0479
     30 C          11.6448    0.9634    0.0000 C.3     1  UNL1       -0.0613
     31 H           5.4724   -0.7984    0.0000 H       1  UNL1        0.0309
     32 H           4.3788    1.6521    0.0000 H       1  UNL1        0.0310
     33 H           4.5967    1.8540    0.0000 H       1  UNL1        0.0309
     34 H           6.9267    0.5088    0.0000 H       1  UNL1        0.0349
     35 H           6.0296   -0.5826    0.0000 H       1  UNL1        0.0274
     36 H           6.6470   -0.0286    0.0000 H       1  UNL1        0.0274
     37 H           2.5711   -0.7223    0.0000 H       1  UNL1        0.0384
     38 H           3.7866    1.5593    0.0000 H       1  UNL1        0.0345
     39 H           3.0539    1.2424    0.0000 H       1  UNL1        0.0345
     40 H           5.1616    3.0919    0.0000 H       1  UNL1        0.0271
     41 H           4.7631    2.4016    0.0000 H       1  UNL1        0.0271
     42 H           5.3481   -2.3254    0.0000 H       1  UNL1        0.0272
     43 H           5.4155   -1.5300    0.0000 H       1  UNL1        0.0272
     44 H           2.3475   -1.2341    0.0000 H       1  UNL1        0.0297
     45 H           2.2617   -2.0278    0.0000 H       1  UNL1        0.0297
     46 H           5.3827   -1.6262    0.0000 H       1  UNL1        0.0235
     47 H           6.0594   -1.0686    0.0000 H       1  UNL1        0.0235
     48 H           5.5018   -0.3920    0.0000 H       1  UNL1        0.0235
     49 H           6.6382    3.4842    0.0000 H       1  UNL1        0.0310
     50 H           5.8412    3.4842    0.0000 H       1  UNL1        0.0310
     51 H           4.1252   -3.3683    0.0000 H       1  UNL1        0.0290
     52 H           4.8503   -3.0345    0.0000 H       1  UNL1        0.0290
     53 H           7.4586    3.3467    0.0000 H       1  UNL1        0.0358
     54 H           7.5951    0.5048    0.0000 H       1  UNL1        0.0473
     55 H           8.3933    0.4956    0.0000 H       1  UNL1        0.0473
     56 H           2.5990   -2.6038    0.0000 H       1  UNL1        0.0593
     57 H           8.8986    3.1500    0.0000 H       1  UNL1        0.0468
     58 H          10.2305    3.5660    0.0000 H       1  UNL1        0.0281
     59 H           9.4323    3.5568    0.0000 H       1  UNL1        0.0281
     60 H           9.4323    0.4617    0.0000 H       1  UNL1        0.0429
     61 H          10.2305    0.4525    0.0000 H       1  UNL1        0.0429
     62 H           8.6081    4.0510    0.0000 H       1  UNL1        0.0236
     63 H           7.9809    4.6638    0.0000 H       1  UNL1        0.0236
     64 H           7.3682    4.0367    0.0000 H       1  UNL1        0.0236
     65 H          10.7771    0.8468    0.0000 H       1  UNL1        0.0310
     66 H          11.3915    2.4457    0.0000 H       1  UNL1        0.0269
     67 H          10.9897    3.1354    0.0000 H       1  UNL1        0.0269
     68 H           2.8867   -4.0439    0.0000 H       1  UNL1        0.2098
     69 H          11.3327    0.4277    0.0000 H       1  UNL1        0.0233
     70 H          12.1805    0.6514    0.0000 H       1  UNL1        0.0233
     71 H          11.9568    1.4992    0.0000 H       1  UNL1        0.0233
@<TRIPOS>BOND
     1     1    15    2
     2    23     2    1
     3     2    68    1
     4     3    22    1
     5     3    24    1
     6     3    26    1
     7     4     5    1
     8     4     6    1
     9     4     9    1
    10     4    31    1
    11     5     7    1
    12     5    11    1
    13     5    32    1
    14     6    10    1
    15     6    14    1
    16     6    18    1
    17     7     8    1
    18     7    12    1
    19     7    33    1
    20     8     9    1
    21     8    13    1
    22     8    34    1
    23     9    35    1
    24     9    36    1
    25    10    15    1
    26    10    17    1
    27    10    37    1
    28    11    15    1
    29    11    38    1
    30    11    39    1
    31    12    19    1
    32    12    40    1
    33    12    41    1
    34    13    16    2
    35    13    22    1
    36    14    20    1
    37    14    42    1
    38    14    43    1
    39    16    19    1
    40    16    21    1
    41    17    23    1
    42    17    44    1
    43    17    45    1
    44    18    46    1
    45    18    47    1
    46    18    48    1
    47    19    49    1
    48    19    50    1
    49    20    23    1
    50    20    51    1
    51    20    52    1
    52    21    24    1
    53    21    27    1
    54    21    53    1
    55    22    54    1
    56    22    55    1
    57    23    56    1
    58    24    25    1
    59    24    57    1
    60    25    29    1
    61    25    58    1
    62    25    59    1
    63    26    28    1
    64    26    60    1
    65    26    61    1
    66    27    62    1
    67    27    63    1
    68    27    64    1
    69    28    29    1
    70    28    30    1
    71    28    65    1
    72    29    66    1
    73    29    67    1
    74    30    69    1
    75    30    70    1
    76    30    71    1
