@<TRIPOS>MOLECULE
IMPHY017812
 78 77 0 0 0
SMALL
GASTEIGER

@<TRIPOS>ATOM
      1 O           8.9282   -2.2500    0.0000 O.3     1  UNL1       -0.4605
      2 O           9.7942   -3.7500    0.0000 O.2     1  UNL1       -0.2508
      3 C          13.2583   -2.7500    0.0000 C.3     1  UNL1       -0.0530
      4 C          14.1244   -2.2500    0.0000 C.3     1  UNL1       -0.0528
      5 C          12.3923   -2.2500    0.0000 C.3     1  UNL1       -0.0526
      6 C          14.9904   -2.7500    0.0000 C.3     1  UNL1       -0.0496
      7 C          11.5263   -2.7500    0.0000 C.3     1  UNL1       -0.0430
      8 C          15.8564   -2.2500    0.0000 C.3     1  UNL1       -0.0348
      9 C          10.6603   -2.2500    0.0000 C.3     1  UNL1        0.0449
     10 C          16.7224   -2.7500    0.0000 C.2     1  UNL1       -0.0876
     11 C           9.7942   -2.7500    0.0000 C.2     1  UNL1        0.3074
     12 C          17.5885    1.7500    0.0000 C.3     1  UNL1       -0.0496
     13 C          16.7224    2.2500    0.0000 C.3     1  UNL1       -0.0530
     14 C          17.5885    0.7500    0.0000 C.3     1  UNL1       -0.0348
     15 C          17.5885   -2.2500    0.0000 C.2     1  UNL1       -0.0842
     16 C          16.7224    3.2500    0.0000 C.3     1  UNL1       -0.0559
     17 C          17.5885   -1.2500    0.0000 C.3     1  UNL1       -0.0165
     18 C          18.4545    0.2500    0.0000 C.2     1  UNL1       -0.0876
     19 C          18.4545   -0.7500    0.0000 C.2     1  UNL1       -0.0842
     20 C           8.0622   -2.7500    0.0000 C.3     1  UNL1        0.1109
     21 C           5.4641   -2.2500    0.0000 C.3     1  UNL1       -0.0285
     22 C           6.3301   -2.7500    0.0000 C.2     1  UNL1       -0.0731
     23 C          15.8564    3.7500    0.0000 C.3     1  UNL1       -0.0653
     24 C           7.1962   -2.2500    0.0000 C.2     1  UNL1       -0.0480
     25 C           4.5981   -2.7500    0.0000 C.3     1  UNL1       -0.0308
     26 C           6.3301   -3.7500    0.0000 C.3     1  UNL1       -0.0437
     27 C           3.7320   -2.2500    0.0000 C.2     1  UNL1       -0.0850
     28 C           2.8660   -2.7500    0.0000 C.2     1  UNL1       -0.0796
     29 C           2.0000   -2.2500    0.0000 C.3     1  UNL1       -0.0440
     30 C           2.8660   -3.7500    0.0000 C.3     1  UNL1       -0.0440
     31 H          12.8598   -3.2250    0.0000 H       1  UNL1        0.0265
     32 H          13.6569   -3.2250    0.0000 H       1  UNL1        0.0265
     33 H          14.5229   -1.7750    0.0000 H       1  UNL1        0.0265
     34 H          13.7258   -1.7750    0.0000 H       1  UNL1        0.0265
     35 H          12.7908   -1.7750    0.0000 H       1  UNL1        0.0265
     36 H          11.9938   -1.7750    0.0000 H       1  UNL1        0.0265
     37 H          14.5919   -3.2250    0.0000 H       1  UNL1        0.0268
     38 H          15.3889   -3.2250    0.0000 H       1  UNL1        0.0268
     39 H          11.1278   -3.2250    0.0000 H       1  UNL1        0.0270
     40 H          11.9248   -3.2250    0.0000 H       1  UNL1        0.0270
     41 H          16.2549   -1.7750    0.0000 H       1  UNL1        0.0307
     42 H          15.4579   -1.7750    0.0000 H       1  UNL1        0.0307
     43 H          11.0588   -1.7750    0.0000 H       1  UNL1        0.0377
     44 H          10.2617   -1.7750    0.0000 H       1  UNL1        0.0377
     45 H          16.7224   -3.3700    0.0000 H       1  UNL1        0.0569
     46 H          18.1990    1.6423    0.0000 H       1  UNL1        0.0268
     47 H          17.8005    2.3326    0.0000 H       1  UNL1        0.0268
     48 H          16.1119    2.3577    0.0000 H       1  UNL1        0.0265
     49 H          16.5104    1.6674    0.0000 H       1  UNL1        0.0265
     50 H          16.9779    0.8577    0.0000 H       1  UNL1        0.0307
     51 H          17.3764    0.1674    0.0000 H       1  UNL1        0.0307
     52 H          18.1254   -2.5600    0.0000 H       1  UNL1        0.0572
     53 H          17.3330    3.1423    0.0000 H       1  UNL1        0.0263
     54 H          16.9345    3.8326    0.0000 H       1  UNL1        0.0263
     55 H          17.3764   -0.6674    0.0000 H       1  UNL1        0.0350
     56 H          16.9779   -1.3577    0.0000 H       1  UNL1        0.0350
     57 H          18.9914    0.5600    0.0000 H       1  UNL1        0.0569
     58 H          18.9914   -1.0600    0.0000 H       1  UNL1        0.0572
     59 H           7.6636   -3.2250    0.0000 H       1  UNL1        0.0743
     60 H           8.4607   -3.2250    0.0000 H       1  UNL1        0.0743
     61 H           5.8626   -1.7750    0.0000 H       1  UNL1        0.0313
     62 H           5.0656   -1.7750    0.0000 H       1  UNL1        0.0313
     63 H          16.1664    4.2869    0.0000 H       1  UNL1        0.0230
     64 H          15.3195    4.0600    0.0000 H       1  UNL1        0.0230
     65 H          15.5464    3.2131    0.0000 H       1  UNL1        0.0230
     66 H           4.1996   -3.2250    0.0000 H       1  UNL1        0.0310
     67 H           4.9966   -3.2250    0.0000 H       1  UNL1        0.0310
     68 H           7.1962   -1.6300    0.0000 H       1  UNL1        0.0605
     69 H           5.7101   -3.7500    0.0000 H       1  UNL1        0.0274
     70 H           6.3301   -4.3700    0.0000 H       1  UNL1        0.0274
     71 H           6.9501   -3.7500    0.0000 H       1  UNL1        0.0274
     72 H           3.7320   -1.6300    0.0000 H       1  UNL1        0.0572
     73 H           2.3100   -1.7131    0.0000 H       1  UNL1        0.0274
     74 H           1.4631   -1.9400    0.0000 H       1  UNL1        0.0274
     75 H           1.6900   -2.7869    0.0000 H       1  UNL1        0.0274
     76 H           2.2460   -3.7500    0.0000 H       1  UNL1        0.0274
     77 H           2.8660   -4.3700    0.0000 H       1  UNL1        0.0274
     78 H           3.4860   -3.7500    0.0000 H       1  UNL1        0.0274
@<TRIPOS>BOND
     1     1    11    1
     2     1    20    1
     3     2    11    2
     4     3     4    1
     5     3     5    1
     6     3    31    1
     7     3    32    1
     8     4     6    1
     9     4    33    1
    10     4    34    1
    11     5     7    1
    12     5    35    1
    13     5    36    1
    14     6     8    1
    15     6    37    1
    16     6    38    1
    17     7     9    1
    18     7    39    1
    19     7    40    1
    20     8    10    1
    21     8    41    1
    22     8    42    1
    23     9    11    1
    24     9    43    1
    25     9    44    1
    26    10    15    2
    27    10    45    1
    28    12    13    1
    29    12    14    1
    30    12    46    1
    31    12    47    1
    32    13    16    1
    33    13    48    1
    34    13    49    1
    35    14    18    1
    36    14    50    1
    37    14    51    1
    38    15    17    1
    39    15    52    1
    40    16    23    1
    41    16    53    1
    42    16    54    1
    43    17    19    1
    44    17    55    1
    45    17    56    1
    46    18    19    2
    47    18    57    1
    48    19    58    1
    49    20    24    1
    50    20    59    1
    51    20    60    1
    52    21    22    1
    53    21    25    1
    54    21    61    1
    55    21    62    1
    56    22    24    2
    57    22    26    1
    58    23    63    1
    59    23    64    1
    60    23    65    1
    61    24    68    1
    62    25    27    1
    63    25    66    1
    64    25    67    1
    65    26    69    1
    66    26    70    1
    67    26    71    1
    68    27    28    2
    69    27    72    1
    70    28    29    1
    71    28    30    1
    72    29    73    1
    73    29    74    1
    74    29    75    1
    75    30    76    1
    76    30    77    1
    77    30    78    1
