@<TRIPOS>MOLECULE
IMPHY003530
 7 5 0 0 0
SMALL
GASTEIGER

@<TRIPOS>ATOM
      1 CA          4.5691   -0.5861    0.0000 Ca      1  UNL1        0.0000
      2 O           3.7601   -1.1739    0.0000 O.co2   2  UNL2       -0.5000
      3 O           4.2601    0.3649    0.0000 O.co2   2  UNL2       -0.5000
      4 O           2.6723    1.1739    0.0000 O.co2   2  UNL2       -0.5000
      5 O           2.0000   -0.8952    0.0000 O.co2   2  UNL2       -0.5000
      6 C           2.9511   -0.5861    0.0000 C.2     2  UNL2        0.0000
      7 C           3.2601    0.3649    0.0000 C.2     2  UNL2        0.0000
@<TRIPOS>UNITY_ATOM_ATTR
1 1
charge 2
2 1
charge -1
3 1
charge -1
@<TRIPOS>BOND
     1     2     6   ar
     2     3     7   ar
     3     4     7   ar
     4     5     6   ar
     5     6     7    1
