@<TRIPOS>MOLECULE
IMPHY012398
 9 9 0 0 0
SMALL
GASTEIGER

@<TRIPOS>ATOM
      1 O           3.6180   -0.2761    0.0000 O.2     1  UNL1       -0.3378
      2 O           3.8968    1.4839    0.0000 O.2     1  UNL1       -0.2433
      3 N           2.8090   -0.8639    0.0000 N.ar    1  UNL1       -0.2245
      4 C           2.3090    0.6749    0.0000 C.ar    1  UNL1        0.0434
      5 C           2.0000   -0.2761    0.0000 C.ar    1  UNL1        0.0431
      6 C           3.3090    0.6749    0.0000 C.ar    1  UNL1        0.3579
      7 H           1.9446    1.1765    0.0000 H       1  UNL1        0.0705
      8 H           1.4103   -0.4677    0.0000 H       1  UNL1        0.0839
      9 H           2.8090   -1.4839    0.0000 H       1  UNL1        0.2066
@<TRIPOS>BOND
     1     1     3   ar
     2     1     6   ar
     3     2     6    2
     4     3     5   ar
     5     3     9    1
     6     4     5   ar
     7     4     6   ar
     8     4     7    1
     9     5     8    1
