@<TRIPOS>MOLECULE
IMPHY006312
 46 48 0 0 0
SMALL
GASTEIGER

@<TRIPOS>ATOM
      1 O           2.5369   -2.5722    0.0000 O.3     1  UNL1       -0.5067
      2 O           9.3274   -1.1983    0.0000 O.2     1  UNL1       -0.2708
      3 O          12.5271    3.0162    0.0000 O.3     1  UNL1       -0.4914
      4 O          11.1914    4.5048    0.0000 O.3     1  UNL1       -0.5033
      5 N           6.0812   -4.3770    0.0000 N.ar    1  UNL1       -0.3604
      6 N           7.6811   -0.6602    0.0000 N.am    1  UNL1       -0.3115
      7 C           6.0812   -2.7675    0.0000 C.ar    1  UNL1       -0.0208
      8 C           5.1350   -3.0722    0.0000 C.ar    1  UNL1        0.0063
      9 C           6.3919   -1.8170    0.0000 C.3     1  UNL1       -0.0101
     10 C           5.1350   -4.0722    0.0000 C.ar    1  UNL1        0.0470
     11 C           6.6648   -3.5722    0.0000 C.ar    1  UNL1        0.0060
     12 C           7.3704   -1.6107    0.0000 C.3     1  UNL1        0.0159
     13 C           4.2690   -2.5722    0.0000 C.ar    1  UNL1       -0.0108
     14 C           4.2690   -4.5722    0.0000 C.ar    1  UNL1       -0.0343
     15 C           3.4030   -3.0722    0.0000 C.ar    1  UNL1        0.1176
     16 C           3.4030   -4.0722    0.0000 C.ar    1  UNL1       -0.0182
     17 C           8.6596   -0.4540    0.0000 C.2     1  UNL1        0.2369
     18 C           8.9702    0.4965    0.0000 C.2     1  UNL1        0.0007
     19 C          10.2594    1.6532    0.0000 C.ar    1  UNL1       -0.0212
     20 C           9.9487    0.7027    0.0000 C.2     1  UNL1       -0.0496
     21 C          11.2379    1.8595    0.0000 C.ar    1  UNL1       -0.0092
     22 C           9.5916    2.3976    0.0000 C.ar    1  UNL1       -0.0509
     23 C          11.5486    2.8100    0.0000 C.ar    1  UNL1        0.1618
     24 C          10.8807    3.5543    0.0000 C.ar    1  UNL1        0.1585
     25 C           9.9022    3.3481    0.0000 C.ar    1  UNL1       -0.0160
     26 C          13.1949    2.2719    0.0000 C.3     1  UNL1        0.0790
     27 H           6.3713   -1.1973    0.0000 H       1  UNL1        0.0329
     28 H           5.7781   -1.7296    0.0000 H       1  UNL1        0.0329
     29 H           7.3910   -2.2304    0.0000 H       1  UNL1        0.0465
     30 H           7.9842   -1.6981    0.0000 H       1  UNL1        0.0465
     31 H           7.2848   -3.5722    0.0000 H       1  UNL1        0.0810
     32 H           6.2738   -4.9663    0.0000 H       1  UNL1        0.1653
     33 H           4.2690   -1.9522    0.0000 H       1  UNL1        0.0661
     34 H           4.2690   -5.1922    0.0000 H       1  UNL1        0.0639
     35 H           2.8660   -4.3822    0.0000 H       1  UNL1        0.0655
     36 H           7.2670   -0.1988    0.0000 H       1  UNL1        0.1490
     37 H           8.5562    0.9580    0.0000 H       1  UNL1        0.0669
     38 H           2.0000   -2.8822    0.0000 H       1  UNL1        0.2921
     39 H          10.3628    0.2413    0.0000 H       1  UNL1        0.0625
     40 H          11.6520    1.3980    0.0000 H       1  UNL1        0.0661
     41 H           8.9849    2.2697    0.0000 H       1  UNL1        0.0625
     42 H           9.4881    3.8095    0.0000 H       1  UNL1        0.0655
     43 H          10.7773    4.9663    0.0000 H       1  UNL1        0.2923
     44 H          12.7334    1.8578    0.0000 H       1  UNL1        0.0660
     45 H          13.6090    1.8104    0.0000 H       1  UNL1        0.0660
     46 H          13.6564    2.6860    0.0000 H       1  UNL1        0.0660
@<TRIPOS>BOND
     1     1    15    1
     2     1    38    1
     3     2    17    2
     4     3    23    1
     5     3    26    1
     6     4    24    1
     7     4    43    1
     8     5    10   ar
     9     5    11   ar
    10     5    32    1
    11     6    12    1
    12     6    17   am
    13     6    36    1
    14     7     8   ar
    15     7     9    1
    16     7    11   ar
    17     8    10   ar
    18     8    13   ar
    19     9    12    1
    20     9    27    1
    21     9    28    1
    22    10    14   ar
    23    11    31    1
    24    12    29    1
    25    12    30    1
    26    13    15   ar
    27    13    33    1
    28    14    16   ar
    29    14    34    1
    30    15    16   ar
    31    16    35    1
    32    17    18    1
    33    18    20    2
    34    18    37    1
    35    19    20    1
    36    19    21   ar
    37    19    22   ar
    38    20    39    1
    39    21    23   ar
    40    21    40    1
    41    22    25   ar
    42    22    41    1
    43    23    24   ar
    44    24    25   ar
    45    25    42    1
    46    26    44    1
    47    26    45    1
    48    26    46    1
