@<TRIPOS>MOLECULE
IMPHY014853
 29 29 0 0 0
SMALL
GASTEIGER

@<TRIPOS>ATOM
      1 O           2.0000   -1.2500    0.0000 O.2     1  UNL1       -0.2971
      2 C           3.7320    0.7500    0.0000 C.3     1  UNL1       -0.0320
      3 C           4.5981    0.2500    0.0000 C.3     1  UNL1       -0.0490
      4 C           2.8660    0.2500    0.0000 C.3     1  UNL1        0.0092
      5 C           3.7320    1.7500    0.0000 C.3     1  UNL1       -0.0435
      6 C           4.5981   -0.7500    0.0000 C.3     1  UNL1       -0.0435
      7 C           3.7320   -1.2500    0.0000 C.3     1  UNL1        0.0147
      8 C           2.8660   -0.7500    0.0000 C.2     1  UNL1        0.1364
      9 C           4.5981    2.2500    0.0000 C.3     1  UNL1       -0.0624
     10 C           2.8660    2.2500    0.0000 C.3     1  UNL1       -0.0624
     11 C           3.7320   -2.2500    0.0000 C.3     1  UNL1       -0.0557
     12 H           4.2690    1.0600    0.0000 H       1  UNL1        0.0307
     13 H           5.2087    0.1423    0.0000 H       1  UNL1        0.0268
     14 H           4.8101    0.8326    0.0000 H       1  UNL1        0.0268
     15 H           2.6540    0.8326    0.0000 H       1  UNL1        0.0344
     16 H           2.2554    0.1423    0.0000 H       1  UNL1        0.0344
     17 H           3.7320    2.3700    0.0000 H       1  UNL1        0.0298
     18 H           4.8101   -1.3326    0.0000 H       1  UNL1        0.0272
     19 H           5.2087   -0.6423    0.0000 H       1  UNL1        0.0272
     20 H           4.2690   -1.5600    0.0000 H       1  UNL1        0.0375
     21 H           4.9081    1.7131    0.0000 H       1  UNL1        0.0232
     22 H           5.1350    2.5600    0.0000 H       1  UNL1        0.0232
     23 H           4.2881    2.7869    0.0000 H       1  UNL1        0.0232
     24 H           3.1760    2.7869    0.0000 H       1  UNL1        0.0232
     25 H           2.3291    2.5600    0.0000 H       1  UNL1        0.0232
     26 H           2.5560    1.7131    0.0000 H       1  UNL1        0.0232
     27 H           3.1120   -2.2500    0.0000 H       1  UNL1        0.0236
     28 H           3.7320   -2.8700    0.0000 H       1  UNL1        0.0236
     29 H           4.3520   -2.2500    0.0000 H       1  UNL1        0.0236
@<TRIPOS>BOND
     1     1     8    2
     2     2     3    1
     3     2     4    1
     4     2     5    1
     5     2    12    1
     6     3     6    1
     7     3    13    1
     8     3    14    1
     9     4     8    1
    10     4    15    1
    11     4    16    1
    12     5     9    1
    13     5    10    1
    14     5    17    1
    15     6     7    1
    16     6    18    1
    17     6    19    1
    18     7     8    1
    19     7    11    1
    20     7    20    1
    21     9    21    1
    22     9    22    1
    23     9    23    1
    24    10    24    1
    25    10    25    1
    26    10    26    1
    27    11    27    1
    28    11    28    1
    29    11    29    1
