@<TRIPOS>MOLECULE
IMPHY005433
 31 33 0 0 0
SMALL
GASTEIGER

@<TRIPOS>ATOM
      1 O           6.0682   -0.0950    0.0000 O.2     1  UNL1       -0.4508
      2 O           7.8003    1.9050    0.0000 O.3     1  UNL1       -0.5007
      3 O           6.0682    2.9050    0.0000 O.2     1  UNL1       -0.2831
      4 O           2.5381   -0.1192    0.0000 O.3     1  UNL1       -0.5066
      5 O           8.6663   -2.5950    0.0000 O.3     1  UNL1       -0.5033
      6 O          10.3984   -1.5950    0.0000 O.3     1  UNL1       -0.5033
      7 C           6.9343    0.4050    0.0000 C.ar    1  UNL1        0.1807
      8 C           5.2022    1.4050    0.0000 C.ar    1  UNL1        0.0679
      9 C           5.2022    0.4050    0.0000 C.ar    1  UNL1        0.1430
     10 C           7.8003   -0.0950    0.0000 C.ar    1  UNL1        0.0247
     11 C           6.9343    1.4050    0.0000 C.ar    1  UNL1        0.2081
     12 C           6.0682    1.9050    0.0000 C.ar    1  UNL1        0.2343
     13 C           4.3083    1.9397    0.0000 C.ar    1  UNL1       -0.0438
     14 C           4.3083   -0.1297    0.0000 C.ar    1  UNL1        0.0229
     15 C           7.8003   -1.0950    0.0000 C.ar    1  UNL1       -0.0057
     16 C           8.6663    0.4050    0.0000 C.ar    1  UNL1       -0.0473
     17 C           3.4022    0.3842    0.0000 C.ar    1  UNL1        0.1204
     18 C           3.4022    1.4258    0.0000 C.ar    1  UNL1       -0.0193
     19 C           8.6663   -1.5950    0.0000 C.ar    1  UNL1        0.1589
     20 C           9.5323   -0.0950    0.0000 C.ar    1  UNL1       -0.0159
     21 C           9.5323   -1.0950    0.0000 C.ar    1  UNL1        0.1583
     22 H           4.3154    2.5596    0.0000 H       1  UNL1        0.0627
     23 H           4.3154   -0.7496    0.0000 H       1  UNL1        0.0691
     24 H           7.2634   -1.4050    0.0000 H       1  UNL1        0.0662
     25 H           8.6663    1.0250    0.0000 H       1  UNL1        0.0626
     26 H           2.8665    1.7379    0.0000 H       1  UNL1        0.0654
     27 H          10.0693    0.2150    0.0000 H       1  UNL1        0.0655
     28 H           7.8003    2.5250    0.0000 H       1  UNL1        0.2924
     29 H           2.0000    0.1888    0.0000 H       1  UNL1        0.2921
     30 H           9.2033   -2.9050    0.0000 H       1  UNL1        0.2923
     31 H          10.9353   -1.2850    0.0000 H       1  UNL1        0.2923
@<TRIPOS>BOND
     1     1     7   ar
     2     1     9   ar
     3     2    11    1
     4     2    28    1
     5     3    12    2
     6     4    17    1
     7     4    29    1
     8     5    19    1
     9     5    30    1
    10     6    21    1
    11     6    31    1
    12     7    10    1
    13     7    11   ar
    14     8     9   ar
    15     8    12   ar
    16     8    13   ar
    17     9    14   ar
    18    10    15   ar
    19    10    16   ar
    20    11    12   ar
    21    13    18   ar
    22    13    22    1
    23    14    17   ar
    24    14    23    1
    25    15    19   ar
    26    15    24    1
    27    16    20   ar
    28    16    25    1
    29    17    18   ar
    30    18    26    1
    31    19    21   ar
    32    20    21   ar
    33    20    27    1
