@<TRIPOS>MOLECULE
IMPHY014701
 25 25 0 0 0
SMALL
GASTEIGER

@<TRIPOS>ATOM
      1 O           2.0000   -1.2500    0.0000 O.2     1  UNL1       -0.2924
      2 C           3.7320    0.7500    0.0000 C.3     1  UNL1       -0.0100
      3 C           2.8660    0.2500    0.0000 C.3     1  UNL1        0.0169
      4 C           4.5981    0.2500    0.0000 C.3     1  UNL1       -0.0272
      5 C           3.7320    1.7500    0.0000 C.2     1  UNL1       -0.0759
      6 C           2.8660   -0.7500    0.0000 C.2     1  UNL1        0.1592
      7 C           4.5981   -0.7500    0.0000 C.2     1  UNL1       -0.0772
      8 C           3.7320   -1.2500    0.0000 C.2     1  UNL1       -0.0119
      9 C           4.5981    2.2500    0.0000 C.3     1  UNL1       -0.0438
     10 C           3.7320   -2.2500    0.0000 C.3     1  UNL1       -0.0367
     11 C           2.8660    2.2500    0.0000 C.2     1  UNL1       -0.0994
     12 H           4.2690    1.0600    0.0000 H       1  UNL1        0.0353
     13 H           2.6540    0.8326    0.0000 H       1  UNL1        0.0351
     14 H           2.2554    0.1423    0.0000 H       1  UNL1        0.0351
     15 H           5.2087    0.1423    0.0000 H       1  UNL1        0.0313
     16 H           4.8101    0.8326    0.0000 H       1  UNL1        0.0313
     17 H           5.1350   -1.0600    0.0000 H       1  UNL1        0.0576
     18 H           4.9081    1.7131    0.0000 H       1  UNL1        0.0274
     19 H           5.1350    2.5600    0.0000 H       1  UNL1        0.0274
     20 H           4.2881    2.7869    0.0000 H       1  UNL1        0.0274
     21 H           3.1120   -2.2500    0.0000 H       1  UNL1        0.0278
     22 H           3.7320   -2.8700    0.0000 H       1  UNL1        0.0278
     23 H           4.3520   -2.2500    0.0000 H       1  UNL1        0.0278
     24 H           2.8660    2.8700    0.0000 H       1  UNL1        0.0534
     25 H           2.3291    1.9400    0.0000 H       1  UNL1        0.0534
@<TRIPOS>BOND
     1     1     6    2
     2     2     3    1
     3     2     4    1
     4     2     5    1
     5     2    12    1
     6     3     6    1
     7     3    13    1
     8     3    14    1
     9     4     7    1
    10     4    15    1
    11     4    16    1
    12     5     9    1
    13     5    11    2
    14     6     8    1
    15     7     8    2
    16     7    17    1
    17     8    10    1
    18     9    18    1
    19     9    19    1
    20     9    20    1
    21    10    21    1
    22    10    22    1
    23    10    23    1
    24    11    24    1
    25    11    25    1
