@<TRIPOS>MOLECULE
IMPHY007043
 158 166 0 0 0
SMALL
GASTEIGER

@<TRIPOS>ATOM
      1 O           7.8620    3.1264    0.0000 O.3     1  UNL1       -0.3448
      2 O           5.4100    2.4630    0.0000 O.3     1  UNL1       -0.3944
      3 O           6.0010   -6.1322    0.0000 O.3     1  UNL1       -0.4318
      4 O           5.1350   -4.6322    0.0000 O.2     1  UNL1       -0.2501
      5 O           9.5940    3.1064    0.0000 O.3     1  UNL1       -0.3461
      6 O           7.8852    5.1262    0.0000 O.3     1  UNL1       -0.3377
      7 O           4.2690   -6.1322    0.0000 O.3     1  UNL1       -0.3312
      8 O           9.6286    6.1062    0.0000 O.3     1  UNL1       -0.3864
      9 O          11.3490    5.0862    0.0000 O.3     1  UNL1       -0.3869
     10 O           6.0010   -8.1322    0.0000 O.3     1  UNL1       -0.3829
     11 O           4.2690   -9.1322    0.0000 O.3     1  UNL1       -0.3864
     12 O           8.7685    6.6161    0.0000 O.3     1  UNL1       -0.3405
     13 O           2.5369   -8.1322    0.0000 O.3     1  UNL1       -0.3865
     14 O           6.1648    6.1462    0.0000 O.3     1  UNL1       -0.3378
     15 O           2.5369   -5.1322    0.0000 O.3     1  UNL1       -0.3924
     16 O           6.1879    8.1461    0.0000 O.3     1  UNL1       -0.3864
     17 O           7.9314    9.1260    0.0000 O.3     1  UNL1       -0.3865
     18 O           5.3162    7.6561    0.0000 O.3     1  UNL1       -0.3461
     19 O           9.6633    9.1059    0.0000 O.3     1  UNL1       -0.3924
     20 O           4.4213    5.1663    0.0000 O.3     1  UNL1       -0.3841
     21 O           2.7009    6.1863    0.0000 O.3     1  UNL1       -0.3864
     22 O           2.7240    8.1861    0.0000 O.3     1  UNL1       -0.3869
     23 C           6.9067   -1.5631    0.0000 C.3     1  UNL1       -0.0194
     24 C           7.7765   -1.0698    0.0000 C.3     1  UNL1       -0.0257
     25 C           7.8006   -0.0285    0.0000 C.3     1  UNL1       -0.0249
     26 C           6.8990   -2.5631    0.0000 C.3     1  UNL1       -0.0051
     27 C           6.9067    0.5062    0.0000 C.3     1  UNL1       -0.0255
     28 C           6.0006   -1.0493    0.0000 C.3     1  UNL1       -0.0463
     29 C           6.9067    1.5912    0.0000 C.3     1  UNL1        0.0206
     30 C           6.0006   -0.0076    0.0000 C.3     1  UNL1       -0.0485
     31 C           7.7611   -3.0698    0.0000 C.2     1  UNL1       -0.0629
     32 C           8.7565    0.4848    0.0000 C.3     1  UNL1       -0.0447
     33 C           8.6387   -1.5765    0.0000 C.3     1  UNL1       -0.0306
     34 C           7.7691   -4.1114    0.0000 C.3     1  UNL1       -0.0031
     35 C           5.9851   -3.0629    0.0000 C.3     1  UNL1       -0.0424
     36 C           6.8671   -4.6322    0.0000 C.3     1  UNL1        0.0744
     37 C           7.8505    2.1264    0.0000 C.3     1  UNL1        0.0695
     38 C           5.9206   -1.7291    0.0000 C.3     1  UNL1       -0.0585
     39 C           5.9690   -4.1044    0.0000 C.3     1  UNL1       -0.0359
     40 C           8.6588   -0.5417    0.0000 C.3     1  UNL1       -0.0590
     41 C           8.7816    1.5695    0.0000 C.3     1  UNL1       -0.0254
     42 C           8.6310   -2.5764    0.0000 C.2     1  UNL1       -0.0836
     43 C           5.9155   -2.3818    0.0000 C.3     1  UNL1       -0.0553
     44 C           8.7170   -4.6393    0.0000 C.3     1  UNL1       -0.0403
     45 C           6.8503   -5.7170    0.0000 C.3     1  UNL1       -0.0362
     46 C           8.7254   -5.7242    0.0000 C.3     1  UNL1       -0.0343
     47 C           6.4100    2.4592    0.0000 C.3     1  UNL1        0.0522
     48 C           5.9067    1.5951    0.0000 C.3     1  UNL1       -0.0548
     49 C           7.7858   -6.2668    0.0000 C.3     1  UNL1       -0.0468
     50 C           6.0010   -5.1322    0.0000 C.2     1  UNL1        0.3161
     51 C           9.7254   -5.7204    0.0000 C.3     1  UNL1       -0.0598
     52 C           9.2287   -6.5884    0.0000 C.3     1  UNL1       -0.0598
     53 C           8.7338    3.6163    0.0000 C.3     1  UNL1        0.1882
     54 C           8.7453    4.6163    0.0000 C.3     1  UNL1        0.1406
     55 C           5.1350   -6.6322    0.0000 C.3     1  UNL1        0.2337
     56 C           9.6171    5.1062    0.0000 C.3     1  UNL1        0.1141
     57 C          10.4657    3.5963    0.0000 C.3     1  UNL1        0.0792
     58 C          10.4773    4.5962    0.0000 C.3     1  UNL1        0.1069
     59 C           5.1350   -7.6322    0.0000 C.3     1  UNL1        0.1455
     60 C           4.2690   -8.1322    0.0000 C.3     1  UNL1        0.1152
     61 C           3.4030   -6.6322    0.0000 C.3     1  UNL1        0.1140
     62 C           3.4030   -7.6322    0.0000 C.3     1  UNL1        0.1120
     63 C           7.8967    6.1262    0.0000 C.3     1  UNL1        0.1889
     64 C           7.0365    6.6362    0.0000 C.3     1  UNL1        0.1406
     65 C           2.5369   -6.1322    0.0000 C.3     1  UNL1        0.0731
     66 C           7.0481    7.6361    0.0000 C.3     1  UNL1        0.1144
     67 C           8.7800    7.6161    0.0000 C.3     1  UNL1        0.1130
     68 C           7.9198    8.1260    0.0000 C.3     1  UNL1        0.1119
     69 C           9.6518    8.1060    0.0000 C.3     1  UNL1        0.0730
     70 C           5.3046    6.6562    0.0000 C.3     1  UNL1        0.1881
     71 C           4.4328    6.1662    0.0000 C.3     1  UNL1        0.1341
     72 C           3.5727    6.6762    0.0000 C.3     1  UNL1        0.1137
     73 C           4.4560    8.1661    0.0000 C.3     1  UNL1        0.0792
     74 C           3.5842    7.6761    0.0000 C.3     1  UNL1        0.1069
     75 H           8.3182   -0.7681    0.0000 H       1  UNL1        0.0315
     76 H           6.3709    0.8183    0.0000 H       1  UNL1        0.0313
     77 H           5.3898   -0.9432    0.0000 H       1  UNL1        0.0271
     78 H           5.7916   -1.6330    0.0000 H       1  UNL1        0.0271
     79 H           5.7916    0.5761    0.0000 H       1  UNL1        0.0268
     80 H           5.3898   -0.1137    0.0000 H       1  UNL1        0.0268
     81 H           8.9520   -0.1036    0.0000 H       1  UNL1        0.0271
     82 H           9.3697    0.5768    0.0000 H       1  UNL1        0.0271
     83 H           9.2484   -1.6888    0.0000 H       1  UNL1        0.0310
     84 H           8.8552   -0.9955    0.0000 H       1  UNL1        0.0310
     85 H           8.3025   -3.7952    0.0000 H       1  UNL1        0.0357
     86 H           5.7850   -2.4760    0.0000 H       1  UNL1        0.0274
     87 H           5.3727   -3.1596    0.0000 H       1  UNL1        0.0274
     88 H           7.3165    2.4416    0.0000 H       1  UNL1        0.0603
     89 H           5.8176   -1.1177    0.0000 H       1  UNL1        0.0235
     90 H           5.3092   -1.8321    0.0000 H       1  UNL1        0.0235
     91 H           6.0235   -2.3405    0.0000 H       1  UNL1        0.0235
     92 H           5.3599   -3.9889    0.0000 H       1  UNL1        0.0276
     93 H           5.7510   -4.6848    0.0000 H       1  UNL1        0.0276
     94 H           8.3406   -1.0738    0.0000 H       1  UNL1        0.0235
     95 H           9.1909   -0.8600    0.0000 H       1  UNL1        0.0235
     96 H           8.9771   -0.0097    0.0000 H       1  UNL1        0.0235
     97 H           9.3899    1.4493    0.0000 H       1  UNL1        0.0290
     98 H           9.0041    2.1482    0.0000 H       1  UNL1        0.0290
     99 H           9.1655   -2.8906    0.0000 H       1  UNL1        0.0572
    100 H           6.0279   -1.7721    0.0000 H       1  UNL1        0.0238
    101 H           5.3058   -2.2695    0.0000 H       1  UNL1        0.0238
    102 H           5.8032   -2.9916    0.0000 H       1  UNL1        0.0238
    103 H           9.3287   -4.7407    0.0000 H       1  UNL1        0.0276
    104 H           8.9216   -4.0540    0.0000 H       1  UNL1        0.0276
    105 H           6.2412   -5.6015    0.0000 H       1  UNL1        0.0276
    106 H           6.6323   -6.2974    0.0000 H       1  UNL1        0.0276
    107 H           6.9934    2.6690    0.0000 H       1  UNL1        0.0563
    108 H           6.3047    3.0701    0.0000 H       1  UNL1        0.0563
    109 H           5.9091    2.2151    0.0000 H       1  UNL1        0.0237
    110 H           5.2867    1.5974    0.0000 H       1  UNL1        0.0237
    111 H           5.9043    0.9751    0.0000 H       1  UNL1        0.0237
    112 H           7.3848   -6.7396    0.0000 H       1  UNL1        0.0271
    113 H           8.1831   -6.7427    0.0000 H       1  UNL1        0.0271
    114 H           9.7278   -6.3404    0.0000 H       1  UNL1        0.0235
    115 H          10.3454   -5.7180    0.0000 H       1  UNL1        0.0235
    116 H           9.7230   -5.1004    0.0000 H       1  UNL1        0.0235
    117 H           8.6930   -6.9004    0.0000 H       1  UNL1        0.0235
    118 H           9.5408   -7.1241    0.0000 H       1  UNL1        0.0235
    119 H           9.7645   -6.2763    0.0000 H       1  UNL1        0.0235
    120 H           8.7266    2.9964    0.0000 H       1  UNL1        0.0937
    121 H           5.1021    3.0011    0.0000 H       1  UNL1        0.2094
    122 H           8.7525    5.2362    0.0000 H       1  UNL1        0.0675
    123 H           5.1350   -6.0122    0.0000 H       1  UNL1        0.1085
    124 H          10.1576    5.4100    0.0000 H       1  UNL1        0.0648
    125 H          10.6710    3.0113    0.0000 H       1  UNL1        0.0587
    126 H          11.0775    3.6969    0.0000 H       1  UNL1        0.0587
    127 H          11.0106    4.2800    0.0000 H       1  UNL1        0.0643
    128 H           5.1350   -8.2522    0.0000 H       1  UNL1        0.0683
    129 H           3.7320   -8.4422    0.0000 H       1  UNL1        0.0648
    130 H           3.4030   -6.0122    0.0000 H       1  UNL1        0.0647
    131 H           2.8660   -7.3222    0.0000 H       1  UNL1        0.0647
    132 H           7.3562    5.8224    0.0000 H       1  UNL1        0.0938
    133 H          10.1691    6.4099    0.0000 H       1  UNL1        0.2100
    134 H          11.8823    4.7700    0.0000 H       1  UNL1        0.2100
    135 H           6.5380   -7.8222    0.0000 H       1  UNL1        0.2102
    136 H           6.5032    6.9523    0.0000 H       1  UNL1        0.0675
    137 H           1.9264   -6.0245    0.0000 H       1  UNL1        0.0584
    138 H           2.3249   -6.7148    0.0000 H       1  UNL1        0.0584
    139 H           3.7320   -9.4422    0.0000 H       1  UNL1        0.2100
    140 H           7.0553    8.2560    0.0000 H       1  UNL1        0.0648
    141 H           2.0000   -7.8222    0.0000 H       1  UNL1        0.2100
    142 H           9.3133    7.2999    0.0000 H       1  UNL1        0.0647
    143 H           8.4603    8.4298    0.0000 H       1  UNL1        0.0647
    144 H           2.0000   -4.8222    0.0000 H       1  UNL1        0.2095
    145 H           9.8571    7.5210    0.0000 H       1  UNL1        0.0584
    146 H          10.2636    8.2066    0.0000 H       1  UNL1        0.0584
    147 H           5.2974    6.0362    0.0000 H       1  UNL1        0.0937
    148 H           6.1951    8.7660    0.0000 H       1  UNL1        0.2100
    149 H           7.3981    9.4422    0.0000 H       1  UNL1        0.2100
    150 H           3.8924    5.8625    0.0000 H       1  UNL1        0.0671
    151 H          10.2038    9.4097    0.0000 H       1  UNL1        0.2095
    152 H           3.0393    6.9924    0.0000 H       1  UNL1        0.0647
    153 H           4.8600    8.6364    0.0000 H       1  UNL1        0.0587
    154 H           4.0630    8.6456    0.0000 H       1  UNL1        0.0587
    155 H           3.5914    8.2961    0.0000 H       1  UNL1        0.0643
    156 H           3.8808    4.8625    0.0000 H       1  UNL1        0.2101
    157 H           2.1676    6.5024    0.0000 H       1  UNL1        0.2100
    158 H           2.7312    8.8061    0.0000 H       1  UNL1        0.2100
@<TRIPOS>BOND
     1     1    37    1
     2     1    53    1
     3     2    47    1
     4     2   121    1
     5     3    50    1
     6     3    55    1
     7     4    50    2
     8     5    53    1
     9     5    57    1
    10     6    54    1
    11     6    63    1
    12     7    55    1
    13     7    61    1
    14     8    56    1
    15     8   133    1
    16     9    58    1
    17     9   134    1
    18    10    59    1
    19    10   135    1
    20    11    60    1
    21    11   139    1
    22    12    63    1
    23    12    67    1
    24    13    62    1
    25    13   141    1
    26    14    64    1
    27    14    70    1
    28    15    65    1
    29    15   144    1
    30    16    66    1
    31    16   148    1
    32    17    68    1
    33    17   149    1
    34    18    70    1
    35    18    73    1
    36    19    69    1
    37    19   151    1
    38    20    71    1
    39    20   156    1
    40    21    72    1
    41    21   157    1
    42    22    74    1
    43    22   158    1
    44    23    24    1
    45    23    26    1
    46    23    28    1
    47    23    38    1
    48    24    25    1
    49    24    33    1
    50    24    75    1
    51    25    27    1
    52    25    32    1
    53    25    40    1
    54    26    31    1
    55    26    35    1
    56    26    43    1
    57    27    29    1
    58    27    30    1
    59    27    76    1
    60    28    30    1
    61    28    77    1
    62    28    78    1
    63    29    37    1
    64    29    47    1
    65    29    48    1
    66    30    79    1
    67    30    80    1
    68    31    34    1
    69    31    42    2
    70    32    41    1
    71    32    81    1
    72    32    82    1
    73    33    42    1
    74    33    83    1
    75    33    84    1
    76    34    36    1
    77    34    44    1
    78    34    85    1
    79    35    39    1
    80    35    86    1
    81    35    87    1
    82    36    39    1
    83    36    45    1
    84    36    50    1
    85    37    41    1
    86    37    88    1
    87    38    89    1
    88    38    90    1
    89    38    91    1
    90    39    92    1
    91    39    93    1
    92    40    94    1
    93    40    95    1
    94    40    96    1
    95    41    97    1
    96    41    98    1
    97    42    99    1
    98    43   100    1
    99    43   101    1
   100    43   102    1
   101    44    46    1
   102    44   103    1
   103    44   104    1
   104    45    49    1
   105    45   105    1
   106    45   106    1
   107    46    49    1
   108    46    51    1
   109    46    52    1
   110    47   107    1
   111    47   108    1
   112    48   109    1
   113    48   110    1
   114    48   111    1
   115    49   112    1
   116    49   113    1
   117    51   114    1
   118    51   115    1
   119    51   116    1
   120    52   117    1
   121    52   118    1
   122    52   119    1
   123    53    54    1
   124    53   120    1
   125    54    56    1
   126    54   122    1
   127    55    59    1
   128    55   123    1
   129    56    58    1
   130    56   124    1
   131    57    58    1
   132    57   125    1
   133    57   126    1
   134    58   127    1
   135    59    60    1
   136    59   128    1
   137    60    62    1
   138    60   129    1
   139    61    62    1
   140    61    65    1
   141    61   130    1
   142    62   131    1
   143    63    64    1
   144    63   132    1
   145    64    66    1
   146    64   136    1
   147    65   137    1
   148    65   138    1
   149    66    68    1
   150    66   140    1
   151    67    68    1
   152    67    69    1
   153    67   142    1
   154    68   143    1
   155    69   145    1
   156    69   146    1
   157    70    71    1
   158    70   147    1
   159    71    72    1
   160    71   150    1
   161    72    74    1
   162    72   152    1
   163    73    74    1
   164    73   153    1
   165    73   154    1
   166    74   155    1
