@<TRIPOS>MOLECULE
IMPHY015577
 39 41 0 0 0
SMALL
GASTEIGER

@<TRIPOS>ATOM
      1 C           4.5981   -0.3914    0.0000 C.3     1  UNL1       -0.0197
      2 C           3.7318   -0.8919    0.0000 C.3     1  UNL1       -0.0284
      3 C           3.7320    0.1086    0.0000 C.3     1  UNL1       -0.0248
      4 C           3.9413   -1.8641    0.0000 C.3     1  UNL1       -0.0402
      5 C           5.4641    0.1086    0.0000 C.3     1  UNL1       -0.0377
      6 C           5.3356   -1.0586    0.0000 C.3     1  UNL1       -0.0463
      7 C           3.7320    1.1086    0.0000 C.3     1  UNL1       -0.0168
      8 C           4.9305   -1.9669    0.0000 C.3     1  UNL1       -0.0497
      9 C           5.4641    1.1086    0.0000 C.3     1  UNL1       -0.0494
     10 C           4.5981    1.6086    0.0000 C.3     1  UNL1       -0.0460
     11 C           3.2737   -2.6086    0.0000 C.3     1  UNL1       -0.0621
     12 C           6.3301   -0.3914    0.0000 C.3     1  UNL1       -0.0619
     13 C           2.8660    1.6086    0.0000 C.2     1  UNL1       -0.0763
     14 C           2.8660    2.6086    0.0000 C.3     1  UNL1       -0.0438
     15 C           2.0000    1.1086    0.0000 C.2     1  UNL1       -0.0994
     16 H           3.1153   -0.9575    0.0000 H       1  UNL1        0.0312
     17 H           2.8820    0.1087    0.0000 H       1  UNL1        0.0315
     18 H           3.3421   -1.7051    0.0000 H       1  UNL1        0.0301
     19 H           5.4641   -0.5114    0.0000 H       1  UNL1        0.0304
     20 H           5.8722   -1.3693    0.0000 H       1  UNL1        0.0271
     21 H           5.7009   -0.5577    0.0000 H       1  UNL1        0.0271
     22 H           3.7320    1.7286    0.0000 H       1  UNL1        0.0348
     23 H           4.8020   -2.5734    0.0000 H       1  UNL1        0.0268
     24 H           5.5202   -2.1585    0.0000 H       1  UNL1        0.0268
     25 H           6.0747    1.0009    0.0000 H       1  UNL1        0.0268
     26 H           5.6762    1.6912    0.0000 H       1  UNL1        0.0268
     27 H           4.9966    2.0835    0.0000 H       1  UNL1        0.0271
     28 H           4.1996    2.0835    0.0000 H       1  UNL1        0.0271
     29 H           2.8121   -2.1946    0.0000 H       1  UNL1        0.0233
     30 H           2.8597   -3.0701    0.0000 H       1  UNL1        0.0233
     31 H           3.7353   -3.0225    0.0000 H       1  UNL1        0.0233
     32 H           6.0201   -0.9284    0.0000 H       1  UNL1        0.0233
     33 H           6.8671   -0.7014    0.0000 H       1  UNL1        0.0233
     34 H           6.6401    0.1455    0.0000 H       1  UNL1        0.0233
     35 H           3.4860    2.6086    0.0000 H       1  UNL1        0.0274
     36 H           2.8660    3.2285    0.0000 H       1  UNL1        0.0274
     37 H           2.2460    2.6086    0.0000 H       1  UNL1        0.0274
     38 H           1.4631    1.4186    0.0000 H       1  UNL1        0.0534
     39 H           2.0000    0.4886    0.0000 H       1  UNL1        0.0534
@<TRIPOS>BOND
     1     1     2    1
     2     1     3    1
     3     1     5    1
     4     1     6    1
     5     2     3    1
     6     2     4    1
     7     2    16    1
     8     3     7    1
     9     3    17    1
    10     4     8    1
    11     4    11    1
    12     4    18    1
    13     5     9    1
    14     5    12    1
    15     5    19    1
    16     6     8    1
    17     6    20    1
    18     6    21    1
    19     7    10    1
    20     7    13    1
    21     7    22    1
    22     8    23    1
    23     8    24    1
    24     9    10    1
    25     9    25    1
    26     9    26    1
    27    10    27    1
    28    10    28    1
    29    11    29    1
    30    11    30    1
    31    11    31    1
    32    12    32    1
    33    12    33    1
    34    12    34    1
    35    13    14    1
    36    13    15    2
    37    14    35    1
    38    14    36    1
    39    14    37    1
    40    15    38    1
    41    15    39    1
