@<TRIPOS>MOLECULE
IMPHY004943
 30 32 0 0 0
SMALL
GASTEIGER

@<TRIPOS>ATOM
      1 O           5.5321   -0.8846    0.0000 O.2     1  UNL1       -0.4216
      2 O           2.9176   -2.4192    0.0000 O.3     1  UNL1       -0.5059
      3 O           4.6660   -2.3846    0.0000 O.2     1  UNL1       -0.2444
      4 O           8.9962    0.1154    0.0000 O.3     1  UNL1       -0.5033
      5 O           8.9962    2.1154    0.0000 O.3     1  UNL1       -0.5033
      6 C           3.8000    0.1154    0.0000 C.ar    1  UNL1       -0.0040
      7 C           3.8000   -0.8846    0.0000 C.ar    1  UNL1        0.1079
      8 C           5.5321    0.1154    0.0000 C.ar    1  UNL1        0.1398
      9 C           4.6660    0.6154    0.0000 C.ar    1  UNL1       -0.0106
     10 C           6.3981    0.6154    0.0000 C.ar    1  UNL1        0.0211
     11 C           2.9061   -1.4193    0.0000 C.ar    1  UNL1        0.1314
     12 C           2.9061    0.6501    0.0000 C.ar    1  UNL1       -0.0535
     13 C           4.6660   -1.3846    0.0000 C.ar    1  UNL1        0.3486
     14 C           7.2641    0.1154    0.0000 C.ar    1  UNL1       -0.0059
     15 C           6.3981    1.6154    0.0000 C.ar    1  UNL1       -0.0474
     16 C           2.0000   -0.9054    0.0000 C.ar    1  UNL1       -0.0193
     17 C           2.0000    0.1362    0.0000 C.ar    1  UNL1       -0.0577
     18 C           8.1301    0.6154    0.0000 C.ar    1  UNL1        0.1589
     19 C           7.2641    2.1154    0.0000 C.ar    1  UNL1       -0.0159
     20 C           8.1301    1.6154    0.0000 C.ar    1  UNL1        0.1583
     21 H           4.6660    1.2354    0.0000 H       1  UNL1        0.0661
     22 H           2.9132    1.2700    0.0000 H       1  UNL1        0.0624
     23 H           7.2641   -0.5046    0.0000 H       1  UNL1        0.0662
     24 H           5.8612    1.9254    0.0000 H       1  UNL1        0.0626
     25 H           1.4643   -1.2175    0.0000 H       1  UNL1        0.0654
     26 H           1.4643    0.4483    0.0000 H       1  UNL1        0.0619
     27 H           7.2641    2.7354    0.0000 H       1  UNL1        0.0655
     28 H           2.3843   -2.7354    0.0000 H       1  UNL1        0.2922
     29 H           8.9962   -0.5046    0.0000 H       1  UNL1        0.2923
     30 H           8.9962    2.7354    0.0000 H       1  UNL1        0.2923
@<TRIPOS>BOND
     1     1     8   ar
     2     1    13   ar
     3     2    11    1
     4     2    28    1
     5     3    13    2
     6     4    18    1
     7     4    29    1
     8     5    20    1
     9     5    30    1
    10     6     7   ar
    11     6     9   ar
    12     6    12   ar
    13     7    11   ar
    14     7    13   ar
    15     8     9   ar
    16     8    10    1
    17     9    21    1
    18    10    14   ar
    19    10    15   ar
    20    11    16   ar
    21    12    17   ar
    22    12    22    1
    23    14    18   ar
    24    14    23    1
    25    15    19   ar
    26    15    24    1
    27    16    17   ar
    28    16    25    1
    29    17    26    1
    30    18    20   ar
    31    19    20   ar
    32    19    27    1
