@<TRIPOS>MOLECULE
IMPHY006809
 27 29 0 0 0
SMALL
GASTEIGER

@<TRIPOS>ATOM
      1 O           6.0065    1.1289    0.0000 O.2     1  UNL1       -0.4632
      2 C           4.8830   -0.2799    0.0000 C.2     1  UNL1        0.0028
      3 C           4.7892   -1.3173    0.0000 C.3     1  UNL1       -0.0202
      4 C           5.6452   -1.9107    0.0000 C.3     1  UNL1       -0.0302
      5 C           3.9820    0.1540    0.0000 C.ar    1  UNL1       -0.0111
      6 C           5.7840    0.1540    0.0000 C.2     1  UNL1        0.1310
      7 C           3.7595    1.1289    0.0000 C.ar    1  UNL1       -0.0146
      8 C           6.5837   -1.4588    0.0000 C.2     1  UNL1       -0.0802
      9 C           6.6536   -0.4195    0.0000 C.2     1  UNL1       -0.0230
     10 C           3.2295   -0.5662    0.0000 C.ar    1  UNL1       -0.0537
     11 C           4.3830    1.9107    0.0000 C.2     1  UNL1       -0.0191
     12 C           2.7690    1.4512    0.0000 C.ar    1  UNL1       -0.0539
     13 C           2.2318   -0.2669    0.0000 C.ar    1  UNL1       -0.0612
     14 C           5.3830    1.9107    0.0000 C.2     1  UNL1        0.0930
     15 C           2.0000    0.7486    0.0000 C.ar    1  UNL1       -0.0612
     16 H           4.1903   -1.1566    0.0000 H       1  UNL1        0.0317
     17 H           4.5284   -1.8798    0.0000 H       1  UNL1        0.0317
     18 H           5.2101   -2.3523    0.0000 H       1  UNL1        0.0311
     19 H           6.0059   -2.4150    0.0000 H       1  UNL1        0.0311
     20 H           7.0973   -1.8060    0.0000 H       1  UNL1        0.0573
     21 H           7.2090   -0.1440    0.0000 H       1  UNL1        0.0651
     22 H           3.3744   -1.1690    0.0000 H       1  UNL1        0.0624
     23 H           4.1140    2.4693    0.0000 H       1  UNL1        0.0654
     24 H           2.6380    2.0572    0.0000 H       1  UNL1        0.0624
     25 H           1.7789   -0.6903    0.0000 H       1  UNL1        0.0618
     26 H           5.6520    2.4693    0.0000 H       1  UNL1        0.1029
     27 H           1.4082    0.9337    0.0000 H       1  UNL1        0.0618
@<TRIPOS>BOND
     1     1     6    1
     2     1    14    1
     3     2     3    1
     4     2     5    1
     5     2     6    2
     6     3     4    1
     7     3    16    1
     8     3    17    1
     9     4     8    1
    10     4    18    1
    11     4    19    1
    12     5     7   ar
    13     5    10   ar
    14     6     9    1
    15     7    11    1
    16     7    12   ar
    17     8     9    2
    18     8    20    1
    19     9    21    1
    20    10    13   ar
    21    10    22    1
    22    11    14    2
    23    11    23    1
    24    12    15   ar
    25    12    24    1
    26    13    15   ar
    27    13    25    1
    28    14    26    1
    29    15    27    1
