@<TRIPOS>MOLECULE
IMPHY016700
 45 45 0 0 0
SMALL
GASTEIGER

@<TRIPOS>ATOM
      1 O           8.0622    0.2500    0.0000 O.3     1  UNL1       -0.4581
      2 O           4.5981   -1.7500    0.0000 O.3     1  UNL1       -0.4609
      3 O           6.3301    0.2500    0.0000 O.2     1  UNL1       -0.2449
      4 O           5.4641   -0.2500    0.0000 O.2     1  UNL1       -0.2449
      5 C           8.0622    1.2500    0.0000 C.3     1  UNL1        0.1006
      6 C           8.9282    1.7500    0.0000 C.3     1  UNL1       -0.0162
      7 C           8.9282    2.7500    0.0000 C.3     1  UNL1       -0.0526
      8 C           2.8660   -1.7500    0.0000 C.3     1  UNL1       -0.0123
      9 C           7.1962    1.7500    0.0000 C.3     1  UNL1       -0.0277
     10 C           3.7320   -1.2500    0.0000 C.3     1  UNL1        0.0951
     11 C           9.7942    3.2500    0.0000 C.3     1  UNL1       -0.0652
     12 C           2.0000   -1.2500    0.0000 C.3     1  UNL1       -0.0596
     13 C           2.8660   -2.7500    0.0000 C.3     1  UNL1       -0.0596
     14 C           7.1962   -1.2500    0.0000 C.ar    1  UNL1        0.0729
     15 C           7.1962   -0.2500    0.0000 C.2     1  UNL1        0.3402
     16 C           6.3301   -1.7500    0.0000 C.ar    1  UNL1        0.0729
     17 C           5.4641   -1.2500    0.0000 C.2     1  UNL1        0.3400
     18 C           8.0622   -1.7500    0.0000 C.ar    1  UNL1       -0.0470
     19 C           6.3301   -2.7500    0.0000 C.ar    1  UNL1       -0.0470
     20 C           8.0622   -2.7500    0.0000 C.ar    1  UNL1       -0.0609
     21 C           7.1962   -3.2500    0.0000 C.ar    1  UNL1       -0.0609
     22 H           7.5252    0.9400    0.0000 H       1  UNL1        0.0731
     23 H           9.1403    1.1674    0.0000 H       1  UNL1        0.0301
     24 H           9.5388    1.8577    0.0000 H       1  UNL1        0.0301
     25 H           8.7162    3.3326    0.0000 H       1  UNL1        0.0264
     26 H           8.3176    2.6423    0.0000 H       1  UNL1        0.0264
     27 H           2.8660   -1.1300    0.0000 H       1  UNL1        0.0328
     28 H           7.5062    2.2869    0.0000 H       1  UNL1        0.0265
     29 H           6.6592    2.0600    0.0000 H       1  UNL1        0.0265
     30 H           6.8862    1.2131    0.0000 H       1  UNL1        0.0265
     31 H           4.1306   -0.7751    0.0000 H       1  UNL1        0.0700
     32 H           3.3335   -0.7751    0.0000 H       1  UNL1        0.0700
     33 H          10.1042    2.7131    0.0000 H       1  UNL1        0.0230
     34 H          10.3312    3.5600    0.0000 H       1  UNL1        0.0230
     35 H           9.4842    3.7869    0.0000 H       1  UNL1        0.0230
     36 H           2.3100   -0.7131    0.0000 H       1  UNL1        0.0233
     37 H           1.4631   -0.9400    0.0000 H       1  UNL1        0.0233
     38 H           1.6900   -1.7869    0.0000 H       1  UNL1        0.0233
     39 H           2.2460   -2.7500    0.0000 H       1  UNL1        0.0233
     40 H           2.8660   -3.3700    0.0000 H       1  UNL1        0.0233
     41 H           3.4860   -2.7500    0.0000 H       1  UNL1        0.0233
     42 H           8.5991   -1.4400    0.0000 H       1  UNL1        0.0626
     43 H           5.7932   -3.0600    0.0000 H       1  UNL1        0.0626
     44 H           8.5991   -3.0600    0.0000 H       1  UNL1        0.0618
     45 H           7.1962   -3.8700    0.0000 H       1  UNL1        0.0618
@<TRIPOS>BOND
     1     1     5    1
     2     1    15    1
     3     2    10    1
     4     2    17    1
     5     3    15    2
     6     4    17    2
     7     5     6    1
     8     5     9    1
     9     5    22    1
    10     6     7    1
    11     6    23    1
    12     6    24    1
    13     7    11    1
    14     7    25    1
    15     7    26    1
    16     8    10    1
    17     8    12    1
    18     8    13    1
    19     8    27    1
    20     9    28    1
    21     9    29    1
    22     9    30    1
    23    10    31    1
    24    10    32    1
    25    11    33    1
    26    11    34    1
    27    11    35    1
    28    12    36    1
    29    12    37    1
    30    12    38    1
    31    13    39    1
    32    13    40    1
    33    13    41    1
    34    14    15    1
    35    14    16   ar
    36    14    18   ar
    37    16    17    1
    38    16    19   ar
    39    18    20   ar
    40    18    42    1
    41    19    21   ar
    42    19    43    1
    43    20    21   ar
    44    20    44    1
    45    21    45    1
