@<TRIPOS>MOLECULE
IMPHY008438
 58 62 0 0 0
SMALL
GASTEIGER

@<TRIPOS>ATOM
      1 O           5.9633    0.5296    0.0000 O.3     1  UNL1       -0.3451
      2 O           6.3633    2.1296    0.0000 O.3     1  UNL1       -0.3618
      3 O           8.0954    1.1296    0.0000 O.3     1  UNL1       -0.3861
      4 O           3.5311   -1.4671    0.0000 O.3     1  UNL1       -0.4612
      5 O           4.7230   -0.7674    0.0000 O.2     1  UNL1       -0.2916
      6 O           2.0000   -0.6574    0.0000 O.2     1  UNL1       -0.2512
      7 C           6.3633   -0.8704    0.0000 C.3     1  UNL1        0.0073
      8 C           5.4973   -0.3704    0.0000 C.3     1  UNL1        0.0220
      9 C           5.4973    0.6296    0.0000 C.3     1  UNL1        0.0965
     10 C           7.2293   -0.3704    0.0000 C.3     1  UNL1        0.0034
     11 C           6.3633    1.1296    0.0000 C.3     1  UNL1        0.2073
     12 C           7.2293    0.6296    0.0000 C.3     1  UNL1        0.1136
     13 C           8.1393   -0.8772    0.0000 C.3     1  UNL1       -0.0289
     14 C           5.3928    1.6242    0.0000 C.3     1  UNL1       -0.0278
     15 C           3.9986   -0.5831    0.0000 C.3     1  UNL1        0.1081
     16 C           5.9633   -0.2704    0.0000 C.3     1  UNL1        0.0574
     17 C           6.3472   -1.9119    0.0000 C.3     1  UNL1       -0.0445
     18 C           4.4146    1.8321    0.0000 C.3     1  UNL1       -0.0087
     19 C           3.3308    0.7753    0.0000 C.3     1  UNL1       -0.0084
     20 C           4.5837    0.2229    0.0000 C.2     1  UNL1        0.1707
     21 C           8.1474   -1.9188    0.0000 C.3     1  UNL1       -0.0475
     22 C           7.2453   -2.4396    0.0000 C.3     1  UNL1       -0.0520
     23 C           3.9146    0.9660    0.0000 C.2     1  UNL1       -0.0081
     24 C           9.1393   -0.8657    0.0000 C.3     1  UNL1       -0.0595
     25 C           8.6293   -0.0055    0.0000 C.3     1  UNL1       -0.0595
     26 C           3.0011    1.3729    0.0000 C.2     1  UNL1       -0.0919
     27 C           2.5318   -1.5042    0.0000 C.2     1  UNL1        0.3042
     28 C           2.0643   -2.3882    0.0000 C.3     1  UNL1        0.0332
     29 H           5.4973   -1.2204    0.0000 H       1  UNL1        0.0354
     30 H           7.9654    0.0546    0.0000 H       1  UNL1        0.0339
     31 H           7.2293    1.2496    0.0000 H       1  UNL1        0.0650
     32 H           6.0127    1.6242    0.0000 H       1  UNL1        0.0282
     33 H           5.4576    2.2408    0.0000 H       1  UNL1        0.0282
     34 H           3.3787   -0.5739    0.0000 H       1  UNL1        0.0737
     35 H           5.3763   -0.0709    0.0000 H       1  UNL1        0.0567
     36 H           6.5567   -0.0907    0.0000 H       1  UNL1        0.0567
     37 H           5.7381   -1.7964    0.0000 H       1  UNL1        0.0272
     38 H           6.1292   -2.4923    0.0000 H       1  UNL1        0.0272
     39 H           4.0689    2.6086    0.0000 H       1  UNL1        0.0351
     40 H           2.9471    1.2623    0.0000 H       1  UNL1        0.0307
     41 H           2.8063    0.4448    0.0000 H       1  UNL1        0.0307
     42 H           8.3609   -2.5009    0.0000 H       1  UNL1        0.0271
     43 H           8.7574   -1.8080    0.0000 H       1  UNL1        0.0271
     44 H           6.8443   -2.9125    0.0000 H       1  UNL1        0.0266
     45 H           7.6426   -2.9156    0.0000 H       1  UNL1        0.0266
     46 H           9.1464   -1.4856    0.0000 H       1  UNL1        0.0235
     47 H           9.7592   -0.8585    0.0000 H       1  UNL1        0.0235
     48 H           9.1321   -0.2457    0.0000 H       1  UNL1        0.0235
     49 H           9.1698   -0.3092    0.0000 H       1  UNL1        0.0235
     50 H           8.9330    0.5350    0.0000 H       1  UNL1        0.0235
     51 H           8.0888    0.2983    0.0000 H       1  UNL1        0.0235
     52 H           6.9002    2.4396    0.0000 H       1  UNL1        0.2129
     53 H           8.0954    1.7496    0.0000 H       1  UNL1        0.2100
     54 H           2.9363    1.9895    0.0000 H       1  UNL1        0.0539
     55 H           2.4995    1.0085    0.0000 H       1  UNL1        0.0539
     56 H           1.5163   -2.0984    0.0000 H       1  UNL1        0.0342
     57 H           1.7745   -2.9363    0.0000 H       1  UNL1        0.0342
     58 H           2.6124   -2.6781    0.0000 H       1  UNL1        0.0342
@<TRIPOS>BOND
     1     1    11    1
     2     1    16    1
     3    11     2    1
     4     2    52    1
     5    12     3    1
     6     3    53    1
     7    15     4    1
     8     4    27    1
     9     5    20    2
    10     6    27    2
    11     7     8    1
    12     7    10    1
    13     7    16    1
    14     7    17    1
    15     8     9    1
    16     8    15    1
    17     8    29    1
    18     9    11    1
    19     9    14    1
    20     9    20    1
    21    10    12    1
    22    10    13    1
    23    10    30    1
    24    11    12    1
    25    12    31    1
    26    13    21    1
    27    13    24    1
    28    13    25    1
    29    14    18    1
    30    14    32    1
    31    14    33    1
    32    15    19    1
    33    15    34    1
    34    16    35    1
    35    16    36    1
    36    17    22    1
    37    17    37    1
    38    17    38    1
    39    18    19    1
    40    18    23    1
    41    18    39    1
    42    19    40    1
    43    19    41    1
    44    20    23    1
    45    21    22    1
    46    21    42    1
    47    21    43    1
    48    22    44    1
    49    22    45    1
    50    23    26    2
    51    24    46    1
    52    24    47    1
    53    24    48    1
    54    25    49    1
    55    25    50    1
    56    25    51    1
    57    26    54    1
    58    26    55    1
    59    27    28    1
    60    28    56    1
    61    28    57    1
    62    28    58    1
