@<TRIPOS>MOLECULE
IMPHY008963
 81 91 0 0 0
SMALL
GASTEIGER

@<TRIPOS>ATOM
      1 O           5.5954   -8.8882    0.0000 O.3     1  UNL1       -0.3368
      2 O           3.9301   -7.8071    0.0000 O.3     1  UNL1       -0.3343
      3 O          12.0027   -3.5090    0.0000 O.3     1  UNL1       -0.3311
      4 O          12.8630   -2.0057    0.0000 O.3     1  UNL1       -0.3257
      5 O          10.2668   -2.5157    0.0000 O.3     1  UNL1       -0.2149
      6 O          10.2591   -0.5157    0.0000 O.3     1  UNL1       -0.2175
      7 O          11.9873    0.4909    0.0000 O.3     1  UNL1       -0.3258
      8 O          14.5912   -0.9990    0.0000 O.3     1  UNL1       -0.2176
      9 O          13.7194    0.4976    0.0000 O.3     1  UNL1       -0.3257
     10 O          11.9796    2.4909    0.0000 O.3     1  UNL1       -0.3232
     11 O          13.7078    3.4976    0.0000 O.3     1  UNL1       -0.3256
     12 O          15.4437    2.5043    0.0000 O.3     1  UNL1       -0.2177
     13 O          12.8398    3.9943    0.0000 O.3     1  UNL1       -0.3257
     14 O          15.4552   -0.4957    0.0000 O.3     1  UNL1       -0.2176
     15 O          15.4398    3.5043    0.0000 O.3     1  UNL1       -0.3256
     16 O          10.2437    3.4843    0.0000 O.3     1  UNL1       -0.2150
     17 O          10.2360    5.4842    0.0000 O.3     1  UNL1       -0.3255
     18 O          13.7001    5.4976    0.0000 O.3     1  UNL1       -0.2149
     19 O          11.9642    6.4909    0.0000 O.3     1  UNL1       -0.2177
     20 O          15.4283    6.5043    0.0000 O.3     1  UNL1       -0.2174
     21 O          17.1642    5.5109    0.0000 O.3     1  UNL1       -0.2176
     22 O          11.0962    6.9876    0.0000 O.3     1  UNL1       -0.3257
     23 O          18.0360    4.0143    0.0000 O.3     1  UNL1       -0.2176
     24 O           8.5001    6.4776    0.0000 O.3     1  UNL1       -0.2149
     25 O           8.4924    8.4775    0.0000 O.3     1  UNL1       -0.2174
     26 O          10.2206    9.4842    0.0000 O.3     1  UNL1       -0.2176
     27 C           6.6628   -6.6534    0.0000 C.3     1  UNL1        0.0025
     28 C           7.5288   -7.1534    0.0000 C.3     1  UNL1        0.0025
     29 C           8.3948   -6.6534    0.0000 C.3     1  UNL1        0.0001
     30 C           5.9258   -7.3205    0.0000 C.3     1  UNL1        0.0320
     31 C           8.3948   -5.6534    0.0000 C.3     1  UNL1        0.0000
     32 C           6.3309   -8.2283    0.0000 C.3     1  UNL1        0.1177
     33 C           9.2888   -5.1187    0.0000 C.3     1  UNL1        0.0002
     34 C           7.3196   -8.1252    0.0000 C.3     1  UNL1        0.0296
     35 C           6.6628   -5.6534    0.0000 C.3     1  UNL1        0.0001
     36 C           7.5288   -5.1534    0.0000 C.3     1  UNL1        0.0000
     37 C           4.9434   -7.4272    0.0000 C.3     1  UNL1        0.0539
     38 C          10.1949   -5.6326    0.0000 C.3     1  UNL1        0.0024
     39 C           9.2888   -7.1881    0.0000 C.3     1  UNL1        0.0000
     40 C           4.7396   -8.3941    0.0000 C.3     1  UNL1        0.1868
     41 C          10.1949   -6.6742    0.0000 C.3     1  UNL1        0.0001
     42 C           5.7968   -6.1534    0.0000 C.3     1  UNL1        0.0001
     43 C           9.2637   -4.0340    0.0000 C.3     1  UNL1        0.0025
     44 C          11.1386   -5.0973    0.0000 C.3     1  UNL1        0.0296
     45 C           8.4189   -4.6254    0.0000 C.3     1  UNL1        0.0000
     46 C          10.1949   -3.4771    0.0000 C.3     1  UNL1        0.0296
     47 C           4.2723   -6.6858    0.0000 C.3     1  UNL1        0.0051
     48 C          11.1386   -4.0124    0.0000 C.3     1  UNL1        0.1179
     49 C           4.6359   -9.3887    0.0000 C.3     1  UNL1        0.0563
     50 C           3.7227   -9.7963    0.0000 C.3     1  UNL1        0.0075
     51 C           3.0169   -8.2146    0.0000 C.3     1  UNL1        0.1446
     52 C           2.9132   -9.2092    0.0000 C.3     1  UNL1        0.0299
     53 C           2.0000   -9.6167    0.0000 C.3     1  UNL1        0.0026
     54 C          11.9989   -2.5090    0.0000 C.3     1  UNL1        0.2694
     55 C          11.1309   -2.0124    0.0000 C.3     1  UNL1        0.2404
     56 C          11.1271   -1.0124    0.0000 C.3     1  UNL1        0.2167
     57 C          12.8591   -1.0057    0.0000 C.3     1  UNL1        0.1803
     58 C          11.9912   -0.5090    0.0000 C.3     1  UNL1        0.1804
     59 C          13.7232   -0.5024    0.0000 C.3     1  UNL1        0.2141
     60 C          12.8514    0.9943    0.0000 C.3     1  UNL1        0.2662
     61 C          12.8476    1.9943    0.0000 C.3     1  UNL1        0.2035
     62 C          13.7116    2.4976    0.0000 C.3     1  UNL1        0.1826
     63 C          14.5834    1.0010    0.0000 C.3     1  UNL1        0.1834
     64 C          14.5796    2.0010    0.0000 C.3     1  UNL1        0.2111
     65 C          15.4514    0.5043    0.0000 C.3     1  UNL1        0.2142
     66 C          11.9758    3.4909    0.0000 C.3     1  UNL1        0.2695
     67 C          14.5719    4.0009    0.0000 C.3     1  UNL1        0.2695
     68 C          11.1078    3.9876    0.0000 C.3     1  UNL1        0.2374
     69 C          14.5680    5.0009    0.0000 C.3     1  UNL1        0.2406
     70 C          11.1040    4.9876    0.0000 C.3     1  UNL1        0.1858
     71 C          12.8360    4.9943    0.0000 C.3     1  UNL1        0.1802
     72 C          11.9680    5.4909    0.0000 C.3     1  UNL1        0.2111
     73 C          15.4321    5.5043    0.0000 C.3     1  UNL1        0.2198
     74 C          16.3039    4.0076    0.0000 C.3     1  UNL1        0.1835
     75 C          16.3001    5.0076    0.0000 C.3     1  UNL1        0.2144
     76 C          17.1719    3.5110    0.0000 C.3     1  UNL1        0.2142
     77 C          10.2322    6.4842    0.0000 C.3     1  UNL1        0.2695
     78 C           9.3642    6.9809    0.0000 C.3     1  UNL1        0.2406
     79 C           9.3604    7.9809    0.0000 C.3     1  UNL1        0.2198
     80 C          10.2244    8.4842    0.0000 C.3     1  UNL1        0.2143
     81 C          11.0924    7.9876    0.0000 C.3     1  UNL1        0.1803
@<TRIPOS>BOND
     1     1    32    1
     2     1    40    1
     3     2    40    1
     4     2    51    1
     5     4    54    1
     6     4    57    1
     7     5    55    1
     8     8    59    1
     9     9    60    1
    10     9    63    1
    11    10    61    1
    12    12    64    1
    13    13    66    1
    14    13    71    1
    15    14    65    1
    16    15    67    1
    17    15    74    1
    18    16    68    1
    19    18    69    1
    20    19    72    1
    21    21    75    1
    22    22    77    1
    23    22    81    1
    24    23    76    1
    25    24    78    1
    26    26    80    1
    27    27    28    1
    28    27    30    1
    29    27    35    1
    30    27    42    1
    31    28    29    1
    32    28    34    1
    33    29    31    1
    34    29    39    1
    35    30    32    1
    36    30    37    1
    37    31    33    1
    38    31    36    1
    39    32    34    1
    40    33    38    1
    41    33    43    1
    42    33    45    1
    43    35    36    1
    44    37    40    1
    45    37    47    1
    46    38    41    1
    47    38    44    1
    48    39    41    1
    49    40    49    1
    50    43    46    1
    51    44    48    1
    52    46    48    1
    53    48     3    1
    54    49    50    1
    55    50    52    1
    56    51    52    1
    57    52    53    1
    58    54     3    1
    59    54    55    1
    60    55    56    1
    61    56     6    1
    62    56    58    1
    63    57    58    1
    64    57    59    1
    65    58     7    1
    66    60     7    1
    67    60    61    1
    68    61    62    1
    69    62    11    1
    70    62    64    1
    71    63    64    1
    72    63    65    1
    73    66    10    1
    74    66    68    1
    75    67    11    1
    76    67    69    1
    77    68    70    1
    78    69    73    1
    79    70    17    1
    80    70    72    1
    81    71    72    1
    82    73    20    1
    83    73    75    1
    84    74    75    1
    85    74    76    1
    86    77    17    1
    87    77    78    1
    88    78    79    1
    89    79    25    1
    90    79    80    1
    91    80    81    1
