@<TRIPOS>MOLECULE
IMPHY001435
 103 104 0 0 0
SMALL
GASTEIGER

@<TRIPOS>ATOM
      1 O           8.4579   -3.5375    0.0000 O.2     7  LEU7       -0.2738
      2 O           4.7212   -2.9743    0.0000 O.2     1  ILE1       -0.2738
      3 O          11.2280   -0.9672    0.0000 O.2     6  PHE6       -0.2738
      4 OG1         9.8415    4.7716    0.0000 O.3     5  THR5       -0.3897
      5 O          10.9456    2.8012    0.0000 O.2     5  THR5       -0.2737
      6 O           2.8317    0.2984    0.0000 O.2     2  ALA2       -0.2738
      7 OG1         2.5369    2.3012    0.0000 O.3     3  THR3       -0.3897
      8 O           4.2123    3.8160    0.0000 O.2     3  THR3       -0.2737
      9 O           7.8233    4.9299    0.0000 O.2     4  GLY4       -0.2741
     10 N           7.1743   -2.7310    0.0000 N.am    1  ILE1       -0.3022
     11 N           9.7971   -1.4679    0.0000 N.am    7  LEU7       -0.3025
     12 N           4.5514   -1.4679    0.0000 N.am    2  ALA2       -0.3027
     13 N          10.4449    1.3703    0.0000 N.am    6  PHE6       -0.3021
     14 N           3.9036    1.3703    0.0000 N.am    3  THR3       -0.3004
     15 N           8.6299    3.6463    0.0000 N.am    5  THR5       -0.3006
     16 N           5.7187    3.6463    0.0000 N.am    4  GLY4       -0.3051
     17 CB          5.8907   -3.5375    0.0000 C.3     1  ILE1       -0.0171
     18 CA          6.1855   -2.5819    0.0000 C.3     1  ILE1        0.1020
     19 CA          9.0641   -2.1480    0.0000 C.3     7  LEU7        0.0996
     20 CB          9.6274   -2.9743    0.0000 C.3     7  LEU7       -0.0236
     21 CG         10.6246   -2.8995    0.0000 C.3     7  LEU7       -0.0446
     22 CG1         6.5709   -4.2705    0.0000 C.3     1  ILE1       -0.0512
     23 C           8.1631   -2.5819    0.0000 C.2     7  LEU7        0.2340
     24 CG2         4.9158   -3.7600    0.0000 C.3     1  ILE1       -0.0603
     25 C           5.2845   -2.1480    0.0000 C.2     1  ILE1        0.2342
     26 CA         10.5197    0.3731    0.0000 C.3     6  PHE6        0.1034
     27 C          10.2971   -0.6018    0.0000 C.2     6  PHE6        0.2343
     28 CD1        11.1879   -3.7258    0.0000 C.3     7  LEU7       -0.0626
     29 CD2        11.0585   -1.9986    0.0000 C.3     7  LEU7       -0.0626
     30 CD1         6.2761   -5.2261    0.0000 C.3     1  ILE1       -0.0650
     31 CA          4.0514   -0.6018    0.0000 C.3     2  ALA2        0.0966
     32 CB         11.5169    0.2984    0.0000 C.3     6  PHE6       -0.0007
     33 CA          9.4561    3.0830    0.0000 C.3     5  THR5        0.1252
     34 C          10.0796    2.3012    0.0000 C.2     5  THR5        0.2365
     35 C           3.8289    0.3731    0.0000 C.2     2  ALA2        0.2337
     36 CA          4.2690    2.3012    0.0000 C.3     3  THR3        0.1252
     37 CG         12.0802    1.1246    0.0000 C.ar    6  PHE6       -0.0451
     38 CB          3.1206   -0.9672    0.0000 C.3     2  ALA2       -0.0381
     39 CB         10.1363    3.8160    0.0000 C.3     5  THR5        0.0792
     40 CB          3.4030    2.8012    0.0000 C.3     3  THR3        0.0792
     41 C           4.8925    3.0830    0.0000 C.2     3  THR3        0.2363
     42 CD1        13.0774    1.0499    0.0000 C.ar    6  PHE6       -0.0585
     43 CD2        11.6463    2.0256    0.0000 C.ar    6  PHE6       -0.0585
     44 CG2        11.1112    3.5935    0.0000 C.3     5  THR5       -0.0367
     45 C           7.6743    3.9411    0.0000 C.2     4  GLY4        0.2308
     46 CA          6.6743    3.9411    0.0000 C.3     4  GLY4        0.0882
     47 CG2         3.4030    3.8012    0.0000 C.3     3  THR3       -0.0367
     48 CE1        13.6407    1.8761    0.0000 C.ar    6  PHE6       -0.0615
     49 CE2        12.2096    2.8518    0.0000 C.ar    6  PHE6       -0.0615
     50 CZ         13.2068    2.7771    0.0000 C.ar    6  PHE6       -0.0617
     51 HB          5.4690   -3.0830    0.0000 H       1  ILE1        0.0321
     52 HA          6.6377   -3.3016    0.0000 H       1  ILE1        0.0597
     53 HA          9.6802   -2.2174    0.0000 H       7  LEU7        0.0594
     54 HB1         9.0623   -3.2293    0.0000 H       7  LEU7        0.0290
     55 HB2         9.7804   -3.5751    0.0000 H       7  LEU7        0.0290
     56 HG         10.2754   -2.3873    0.0000 H       7  LEU7        0.0296
     57 HG11        7.1226   -4.5534    0.0000 H       1  ILE1        0.0266
     58 HG12        6.9452   -3.7763    0.0000 H       1  ILE1        0.0266
     59 H           7.1743   -3.3510    0.0000 H       1  ILE1        0.1495
     60 HG21        4.7778   -3.1556    0.0000 H       1  ILE1        0.0233
     61 HG22        4.3113   -3.8980    0.0000 H       1  ILE1        0.0233
     62 HG23        5.0537   -4.3645    0.0000 H       1  ILE1        0.0233
     63 H          10.2819   -1.8544    0.0000 H       7  LEU7        0.1495
     64 HA         10.9581    0.8115    0.0000 H       6  PHE6        0.0598
     65 HD11       10.6757   -4.0750    0.0000 H       7  LEU7        0.0232
     66 HD12       11.5372   -4.2380    0.0000 H       7  LEU7        0.0232
     67 HD13       11.7002   -3.3765    0.0000 H       7  LEU7        0.0232
     68 HD21       11.6171   -2.2676    0.0000 H       7  LEU7        0.0232
     69 HD22       11.3275   -1.4400    0.0000 H       7  LEU7        0.0232
     70 HD23       10.4999   -1.7296    0.0000 H       7  LEU7        0.0232
     71 HD11        5.6837   -5.0434    0.0000 H       1  ILE1        0.0230
     72 HD12        6.0934   -5.8186    0.0000 H       1  ILE1        0.0230
     73 HD13        6.8686   -5.4089    0.0000 H       1  ILE1        0.0230
     74 H           4.0667   -1.8544    0.0000 H       2  ALA2        0.1495
     75 HA          3.8467   -1.1870    0.0000 H       2  ALA2        0.0592
     76 HB1        11.3639   -0.3025    0.0000 H       6  PHE6        0.0336
     77 HB2        12.0820    0.0434    0.0000 H       6  PHE6        0.0336
     78 H          11.0494    1.5083    0.0000 H       6  PHE6        0.1495
     79 HA          9.3609    3.9276    0.0000 H       5  THR5        0.0621
     80 HA          3.4667    2.0204    0.0000 H       3  THR3        0.0621
     81 HB1         2.8940   -0.3900    0.0000 H       2  ALA2        0.0252
     82 HB2         2.5434   -1.1937    0.0000 H       2  ALA2        0.0252
     83 HB3         3.3471   -1.5443    0.0000 H       2  ALA2        0.0252
     84 HB         10.5580    4.2705    0.0000 H       5  THR5        0.0614
     85 H           3.2992    1.5083    0.0000 H       3  THR3        0.1496
     86 HB          2.8660    3.1112    0.0000 H       3  THR3        0.0614
     87 H           8.8989    4.2049    0.0000 H       5  THR5        0.1496
     88 HG21       10.9732    2.9891    0.0000 H       5  THR5        0.0255
     89 HG22       11.7157    3.4556    0.0000 H       5  THR5        0.0255
     90 HG23       11.2492    4.1980    0.0000 H       5  THR5        0.0255
     91 HD1        13.3464    0.4913    0.0000 H       6  PHE6        0.0620
     92 HD2        11.0280    2.0719    0.0000 H       6  PHE6        0.0620
     93 HA1         6.9293    4.5062    0.0000 H       4  GLY4        0.0558
     94 HA2         6.7667    3.3280    0.0000 H       4  GLY4        0.0558
     95 H           5.4497    4.2049    0.0000 H       4  GLY4        0.1492
     96 HG21        4.0230    3.8012    0.0000 H       3  THR3        0.0255
     97 HG22        3.4030    4.4212    0.0000 H       3  THR3        0.0255
     98 HG23        2.7830    3.8012    0.0000 H       3  THR3        0.0255
     99 HG1        10.2632    5.2261    0.0000 H       5  THR5        0.2099
    100 HE1        14.2590    1.8298    0.0000 H       6  PHE6        0.0618
    101 HE2        11.9406    3.4104    0.0000 H       6  PHE6        0.0618
    102 HZ         13.5561    3.2894    0.0000 H       6  PHE6        0.0618
    103 HG1         2.0000    2.6112    0.0000 H       3  THR3        0.2099
@<TRIPOS>BOND
     1     1    23    2
     2     2    25    2
     3     3    27    2
     4    39     4    1
     5     4    99    1
     6     5    34    2
     7     6    35    2
     8    40     7    1
     9     7   103    1
    10     8    41    2
    11     9    45    2
    12    10    18    1
    13    10    23   am
    14    10    59    1
    15    11    19    1
    16    11    27   am
    17    11    63    1
    18    12    25   am
    19    12    31    1
    20    12    74    1
    21    13    26    1
    22    13    34   am
    23    13    78    1
    24    14    35   am
    25    14    36    1
    26    14    85    1
    27    15    33    1
    28    15    45   am
    29    15    87    1
    30    16    41   am
    31    16    46    1
    32    16    95    1
    33    17    18    1
    34    17    22    1
    35    17    24    1
    36    17    51    1
    37    18    25    1
    38    18    52    1
    39    19    20    1
    40    19    23    1
    41    19    53    1
    42    20    21    1
    43    20    54    1
    44    20    55    1
    45    21    28    1
    46    21    29    1
    47    21    56    1
    48    22    30    1
    49    22    57    1
    50    22    58    1
    51    24    60    1
    52    24    61    1
    53    24    62    1
    54    26    27    1
    55    26    32    1
    56    26    64    1
    57    28    65    1
    58    28    66    1
    59    28    67    1
    60    29    68    1
    61    29    69    1
    62    29    70    1
    63    30    71    1
    64    30    72    1
    65    30    73    1
    66    31    35    1
    67    31    38    1
    68    31    75    1
    69    32    37    1
    70    32    76    1
    71    32    77    1
    72    33    34    1
    73    33    39    1
    74    33    79    1
    75    36    40    1
    76    36    41    1
    77    36    80    1
    78    37    42   ar
    79    37    43   ar
    80    38    81    1
    81    38    82    1
    82    38    83    1
    83    39    44    1
    84    39    84    1
    85    40    47    1
    86    40    86    1
    87    42    48   ar
    88    42    91    1
    89    43    49   ar
    90    43    92    1
    91    44    88    1
    92    44    89    1
    93    44    90    1
    94    45    46    1
    95    46    93    1
    96    46    94    1
    97    47    96    1
    98    47    97    1
    99    47    98    1
   100    48    50   ar
   101    48   100    1
   102    49    50   ar
   103    49   101    1
   104    50   102    1
