@<TRIPOS>MOLECULE
IMPHY013137
 49 51 0 0 0
SMALL
GASTEIGER

@<TRIPOS>ATOM
      1 O           6.3580   -0.4226    0.0000 O.2     1  UNL1       -0.4505
      2 O           4.5981   -1.3879    0.0000 O.3     1  UNL1       -0.4884
      3 O           2.8660   -0.3879    0.0000 O.3     1  UNL1       -0.4883
      4 O           2.8660    1.6121    0.0000 O.3     1  UNL1       -0.4884
      5 O           4.5981    2.6121    0.0000 O.3     1  UNL1       -0.5027
      6 O           6.3465    2.6467    0.0000 O.2     1  UNL1       -0.2869
      7 O          10.7282    0.0779    0.0000 O.3     1  UNL1       -0.4914
      8 O           7.2564   -1.9087    0.0000 O.3     1  UNL1       -0.5059
      9 O          10.7205   -1.9221    0.0000 O.3     1  UNL1       -0.4913
     10 C           5.4641    1.1121    0.0000 C.ar    1  UNL1        0.1128
     11 C           5.4641    0.1121    0.0000 C.ar    1  UNL1        0.1881
     12 C           7.2641    0.0913    0.0000 C.ar    1  UNL1        0.1430
     13 C           4.5981   -0.3879    0.0000 C.ar    1  UNL1        0.2088
     14 C           4.5981    1.6121    0.0000 C.ar    1  UNL1        0.1770
     15 C           8.1282   -0.4121    0.0000 C.ar    1  UNL1        0.0624
     16 C           6.3580    1.6467    0.0000 C.ar    1  UNL1        0.1969
     17 C           3.7320    0.1121    0.0000 C.ar    1  UNL1        0.2110
     18 C           3.7320    1.1121    0.0000 C.ar    1  UNL1        0.2080
     19 C           7.2641    1.1329    0.0000 C.ar    1  UNL1        0.0289
     20 C           8.1244   -1.4121    0.0000 C.ar    1  UNL1        0.1312
     21 C           8.9962    0.0846    0.0000 C.ar    1  UNL1       -0.0021
     22 C           9.8602   -0.4188    0.0000 C.ar    1  UNL1        0.1624
     23 C           8.9884   -1.9154    0.0000 C.ar    1  UNL1        0.0259
     24 C           9.8564   -1.4188    0.0000 C.ar    1  UNL1        0.1650
     25 C           3.7320   -1.8879    0.0000 C.3     1  UNL1        0.0791
     26 C           2.0000    0.1121    0.0000 C.3     1  UNL1        0.0791
     27 C           2.0000    1.1121    0.0000 C.3     1  UNL1        0.0791
     28 C          10.7320    1.0779    0.0000 C.3     1  UNL1        0.0790
     29 C          10.7166   -2.9221    0.0000 C.3     1  UNL1        0.0790
     30 H           7.7998    1.4450    0.0000 H       1  UNL1        0.0693
     31 H           8.9985    0.7046    0.0000 H       1  UNL1        0.0663
     32 H           8.9860   -2.5354    0.0000 H       1  UNL1        0.0692
     33 H           4.0611    2.9221    0.0000 H       1  UNL1        0.2923
     34 H           3.4220   -1.3510    0.0000 H       1  UNL1        0.0660
     35 H           3.1951   -2.1979    0.0000 H       1  UNL1        0.0660
     36 H           4.0420   -2.4249    0.0000 H       1  UNL1        0.0660
     37 H           2.3100    0.6490    0.0000 H       1  UNL1        0.0660
     38 H           1.4631    0.4221    0.0000 H       1  UNL1        0.0660
     39 H           1.6900   -0.4249    0.0000 H       1  UNL1        0.0660
     40 H           1.6900    1.6490    0.0000 H       1  UNL1        0.0660
     41 H           1.4631    0.8021    0.0000 H       1  UNL1        0.0660
     42 H           2.3100    0.5751    0.0000 H       1  UNL1        0.0660
     43 H           7.2540   -2.5287    0.0000 H       1  UNL1        0.2922
     44 H          11.3520    1.0755    0.0000 H       1  UNL1        0.0660
     45 H          10.7344    1.6979    0.0000 H       1  UNL1        0.0660
     46 H          10.1120    1.0803    0.0000 H       1  UNL1        0.0660
     47 H          10.0966   -2.9197    0.0000 H       1  UNL1        0.0660
     48 H          10.7142   -3.5421    0.0000 H       1  UNL1        0.0660
     49 H          11.3366   -2.9245    0.0000 H       1  UNL1        0.0660
@<TRIPOS>BOND
     1     1    11   ar
     2     1    12   ar
     3     2    13    1
     4     2    25    1
     5     3    17    1
     6     3    26    1
     7     4    18    1
     8     4    27    1
     9     5    14    1
    10     5    33    1
    11     6    16    2
    12     7    22    1
    13     7    28    1
    14     8    20    1
    15     8    43    1
    16     9    24    1
    17     9    29    1
    18    10    11   ar
    19    10    14   ar
    20    10    16   ar
    21    11    13   ar
    22    12    15    1
    23    12    19   ar
    24    13    17   ar
    25    14    18   ar
    26    15    20   ar
    27    15    21   ar
    28    16    19   ar
    29    17    18   ar
    30    19    30    1
    31    20    23   ar
    32    21    22   ar
    33    21    31    1
    34    22    24   ar
    35    23    24   ar
    36    23    32    1
    37    25    34    1
    38    25    35    1
    39    25    36    1
    40    26    37    1
    41    26    38    1
    42    26    39    1
    43    27    40    1
    44    27    41    1
    45    27    42    1
    46    28    44    1
    47    28    45    1
    48    28    46    1
    49    29    47    1
    50    29    48    1
    51    29    49    1
