@<TRIPOS>MOLECULE
IMPHY008807
 72 77 0 0 0
SMALL
GASTEIGER

@<TRIPOS>ATOM
      1 O           5.5150    1.8675    0.0000 O.3     1  UNL1       -0.3601
      2 O           4.8501   -1.1785    0.0000 O.3     1  UNL1       -0.3506
      3 O           2.4397   -0.7589    0.0000 O.3     1  UNL1       -0.4587
      4 O           5.0942   -3.8130    0.0000 O.3     1  UNL1       -0.3817
      5 O           8.5103   -2.9722    0.0000 O.3     1  UNL1       -0.4575
      6 O           2.0000   -2.0452    0.0000 O.2     1  UNL1       -0.2472
      7 O           2.0967   -3.1927    0.0000 O.2     1  UNL1       -0.2926
      8 O           9.8876   -1.8775    0.0000 O.2     1  UNL1       -0.2453
      9 O           5.8799    2.7980    0.0000 O.2     1  UNL1       -0.2930
     10 C           4.5257    1.7181    0.0000 C.3     1  UNL1        0.1171
     11 C           5.1492    0.9363    0.0000 C.3     1  UNL1        0.0931
     12 C           4.0257   -0.4725    0.0000 C.3     1  UNL1        0.0425
     13 C           4.9267   -0.0386    0.0000 C.3     1  UNL1       -0.0138
     14 C           3.8897   -1.4572    0.0000 C.3     1  UNL1        0.1999
     15 C           3.5257    1.7181    0.0000 C.3     1  UNL1       -0.0053
     16 C           3.1248   -0.0386    0.0000 C.3     1  UNL1        0.1099
     17 C           2.9022    0.9363    0.0000 C.3     1  UNL1       -0.0097
     18 C           5.5717   -1.8708    0.0000 C.3     1  UNL1        0.0937
     19 C           5.3329   -2.8419    0.0000 C.3     1  UNL1        0.1136
     20 C           3.6510   -2.4283    0.0000 C.2     1  UNL1        0.0363
     21 C           2.9115   -1.6339    0.0000 C.2     1  UNL1        0.3448
     22 C           3.9022    2.5000    0.0000 C.2     1  UNL1       -0.0466
     23 C           5.9368   -3.6147    0.0000 C.3     1  UNL1       -0.0055
     24 C           2.6142    2.1294    0.0000 C.3     1  UNL1       -0.0593
     25 C           6.4651   -1.4660    0.0000 C.3     1  UNL1       -0.0131
     26 C           4.3726   -3.1206    0.0000 C.2     1  UNL1       -0.0403
     27 C           7.3397   -1.9098    0.0000 C.3     1  UNL1        0.0299
     28 C           6.9175   -3.6272    0.0000 C.3     1  UNL1       -0.0095
     29 C           7.5407   -2.8698    0.0000 C.3     1  UNL1        0.1108
     30 C           3.0944   -3.2591    0.0000 C.2     1  UNL1        0.1593
     31 C           5.4927   -4.5108    0.0000 C.3     1  UNL1       -0.0593
     32 C           4.2676    3.4308    0.0000 C.2     1  UNL1       -0.0207
     33 C           8.1869   -1.4271    0.0000 C.2     1  UNL1        0.0362
     34 C           8.9088   -2.0824    0.0000 C.2     1  UNL1        0.3353
     35 C           3.5358   -4.1565    0.0000 C.3     1  UNL1       -0.0016
     36 C           5.2564    3.5799    0.0000 C.2     1  UNL1        0.1528
     37 C           8.2962   -0.4331    0.0000 C.2     1  UNL1       -0.0883
     38 C           5.6218    4.5108    0.0000 C.3     1  UNL1       -0.0020
     39 H           5.9614    0.6856    0.0000 H       1  UNL1        0.0629
     40 H           4.7128   -0.9730    0.0000 H       1  UNL1        0.0374
     41 H           5.0647   -0.6431    0.0000 H       1  UNL1        0.0296
     42 H           5.5467   -0.0386    0.0000 H       1  UNL1        0.0296
     43 H           3.8945    0.9523    0.0000 H       1  UNL1        0.0331
     44 H           2.3051    0.1864    0.0000 H       1  UNL1        0.0738
     45 H           2.5157    1.4210    0.0000 H       1  UNL1        0.0304
     46 H           2.3436    0.6673    0.0000 H       1  UNL1        0.0304
     47 H           5.7152   -1.0330    0.0000 H       1  UNL1        0.0629
     48 H           3.3732    2.8233    0.0000 H       1  UNL1        0.0602
     49 H           6.3142   -2.8531    0.0000 H       1  UNL1        0.0331
     50 H           2.8692    2.6946    0.0000 H       1  UNL1        0.0233
     51 H           2.0491    2.3844    0.0000 H       1  UNL1        0.0233
     52 H           2.3592    1.5643    0.0000 H       1  UNL1        0.0233
     53 H           6.8620   -0.9898    0.0000 H       1  UNL1        0.0298
     54 H           6.0895   -0.9727    0.0000 H       1  UNL1        0.0298
     55 H           4.2246   -3.7227    0.0000 H       1  UNL1        0.0606
     56 H           7.3192   -1.0601    0.0000 H       1  UNL1        0.0388
     57 H           6.7714   -4.2297    0.0000 H       1  UNL1        0.0305
     58 H           7.4722   -3.9042    0.0000 H       1  UNL1        0.0305
     59 H           7.8627   -3.6565    0.0000 H       1  UNL1        0.0740
     60 H           4.9372   -4.2354    0.0000 H       1  UNL1        0.0233
     61 H           5.2174   -5.0663    0.0000 H       1  UNL1        0.0233
     62 H           6.0483   -4.7861    0.0000 H       1  UNL1        0.0233
     63 H           3.8810    3.9156    0.0000 H       1  UNL1        0.0650
     64 H           4.4988   -3.9858    0.0000 H       1  UNL1        0.2107
     65 H           2.9794   -4.4302    0.0000 H       1  UNL1        0.0309
     66 H           3.8094   -4.7129    0.0000 H       1  UNL1        0.0309
     67 H           4.0921   -3.8829    0.0000 H       1  UNL1        0.0309
     68 H           8.8638   -0.1837    0.0000 H       1  UNL1        0.0540
     69 H           7.7963   -0.0663    0.0000 H       1  UNL1        0.0540
     70 H           6.1989    4.2842    0.0000 H       1  UNL1        0.0309
     71 H           5.8483    5.0879    0.0000 H       1  UNL1        0.0309
     72 H           5.0446    4.7373    0.0000 H       1  UNL1        0.0309
@<TRIPOS>BOND
     1     1    10    1
     2     1    11    1
     3     2    14    1
     4     2    18    1
     5     3    16    1
     6     3    21    1
     7     4    19    1
     8     4    64    1
     9     5    29    1
    10     5    34    1
    11     6    21    2
    12     7    30    2
    13     8    34    2
    14     9    36    2
    15    10    11    1
    16    10    15    1
    17    10    22    1
    18    11    13    1
    19    11    39    1
    20    12    13    1
    21    12    14    1
    22    12    16    1
    23    12    40    1
    24    13    41    1
    25    13    42    1
    26    14    20    1
    27    14    21    1
    28    15    17    1
    29    15    24    1
    30    15    43    1
    31    16    17    1
    32    16    44    1
    33    17    45    1
    34    17    46    1
    35    18    19    1
    36    18    25    1
    37    18    47    1
    38    19    23    1
    39    19    26    1
    40    20    26    2
    41    20    30    1
    42    22    32    2
    43    22    48    1
    44    23    28    1
    45    23    31    1
    46    23    49    1
    47    24    50    1
    48    24    51    1
    49    24    52    1
    50    25    27    1
    51    25    53    1
    52    25    54    1
    53    26    55    1
    54    27    29    1
    55    27    33    1
    56    27    56    1
    57    28    29    1
    58    28    57    1
    59    28    58    1
    60    29    59    1
    61    30    35    1
    62    31    60    1
    63    31    61    1
    64    31    62    1
    65    32    36    1
    66    32    63    1
    67    33    34    1
    68    33    37    2
    69    35    65    1
    70    35    66    1
    71    35    67    1
    72    36    38    1
    73    37    68    1
    74    37    69    1
    75    38    70    1
    76    38    71    1
    77    38    72    1
