@<TRIPOS>MOLECULE
IMPHY004499
 35 37 0 0 0
SMALL
GASTEIGER

@<TRIPOS>ATOM
      1 O           5.5443   -0.8047    0.0000 O.2     1  UNL1       -0.4547
      2 O           2.0000    1.0000    0.0000 O.3     1  UNL1       -0.4914
      3 O           2.0000   -1.0000    0.0000 O.3     1  UNL1       -0.4913
      4 O           9.1279    1.7320    0.0000 O.3     1  UNL1       -0.5066
      5 O           9.1279   -1.7320    0.0000 O.3     1  UNL1       -0.5066
      6 C           4.5981    0.5000    0.0000 C.ar    1  UNL1        0.0245
      7 C           4.5981   -0.5000    0.0000 C.ar    1  UNL1        0.1394
      8 C           6.1279    0.0000    0.0000 C.ar    1  UNL1        0.1365
      9 C           5.5443    0.8047    0.0000 C.ar    1  UNL1       -0.0080
     10 C           7.1279    0.0000    0.0000 C.ar    1  UNL1        0.0242
     11 C           3.7320    1.0000    0.0000 C.ar    1  UNL1       -0.0055
     12 C           3.7320   -1.0000    0.0000 C.ar    1  UNL1        0.0266
     13 C           2.8660    0.5000    0.0000 C.ar    1  UNL1        0.1623
     14 C           2.8660   -0.5000    0.0000 C.ar    1  UNL1        0.1650
     15 C           7.6279   -0.8660    0.0000 C.ar    1  UNL1       -0.0093
     16 C           7.6279    0.8660    0.0000 C.ar    1  UNL1       -0.0093
     17 C           8.6279    0.8660    0.0000 C.ar    1  UNL1        0.1210
     18 C           8.6279   -0.8660    0.0000 C.ar    1  UNL1        0.1210
     19 C           9.1279    0.0000    0.0000 C.ar    1  UNL1        0.0213
     20 C           2.0000    2.0000    0.0000 C.3     1  UNL1        0.0790
     21 C           2.0000   -2.0000    0.0000 C.3     1  UNL1        0.0790
     22 H           5.7369    1.3940    0.0000 H       1  UNL1        0.0661
     23 H           3.7320    1.6200    0.0000 H       1  UNL1        0.0662
     24 H           3.7320   -1.6200    0.0000 H       1  UNL1        0.0692
     25 H           7.3179   -1.4030    0.0000 H       1  UNL1        0.0661
     26 H           7.3179    1.4030    0.0000 H       1  UNL1        0.0661
     27 H           9.7479    0.0000    0.0000 H       1  UNL1        0.0691
     28 H           2.6200    2.0000    0.0000 H       1  UNL1        0.0660
     29 H           2.0000    2.6200    0.0000 H       1  UNL1        0.0660
     30 H           1.3800    2.0000    0.0000 H       1  UNL1        0.0660
     31 H           1.3800   -2.0000    0.0000 H       1  UNL1        0.0660
     32 H           2.0000   -2.6200    0.0000 H       1  UNL1        0.0660
     33 H           2.6200   -2.0000    0.0000 H       1  UNL1        0.0660
     34 H           9.7479    1.7320    0.0000 H       1  UNL1        0.2921
     35 H           9.7479   -1.7320    0.0000 H       1  UNL1        0.2921
@<TRIPOS>BOND
     1     1     7   ar
     2     1     8   ar
     3     2    13    1
     4     2    20    1
     5     3    14    1
     6     3    21    1
     7     4    17    1
     8     4    34    1
     9     5    18    1
    10     5    35    1
    11     6     7   ar
    12     6     9   ar
    13     6    11   ar
    14     7    12   ar
    15     8     9   ar
    16     8    10    1
    17     9    22    1
    18    10    15   ar
    19    10    16   ar
    20    11    13   ar
    21    11    23    1
    22    12    14   ar
    23    12    24    1
    24    13    14   ar
    25    15    18   ar
    26    15    25    1
    27    16    17   ar
    28    16    26    1
    29    17    19   ar
    30    18    19   ar
    31    19    27    1
    32    20    28    1
    33    20    29    1
    34    20    30    1
    35    21    31    1
    36    21    32    1
    37    21    33    1
