@<TRIPOS>MOLECULE
IMPHY008520
 86 89 0 0 0
SMALL
GASTEIGER

@<TRIPOS>ATOM
      1 O           6.0097    3.4943    0.0000 O.3     1  UNL1       -0.4864
      2 O           6.3587   -0.3822    0.0000 O.2     1  UNL1       -0.2735
      3 O           6.5131    2.6302    0.0000 O.2     1  UNL1       -0.2736
      4 O           6.4632   -1.3767    0.0000 O.2     1  UNL1       -0.2741
      5 O           9.5274    2.6178    0.0000 O.2     1  UNL1       -0.2734
      6 N           5.3406    1.0191    0.0000 N.am    1  UNL1       -0.2849
      7 N           7.5097    0.8962    0.0000 N.am    1  UNL1       -0.3020
      8 N           4.7406   -1.5578    0.0000 N.am    1  UNL1       -0.3027
      9 N           6.6723   -3.3658    0.0000 N.3     1  UNL1       -0.2979
     10 N          10.0097    1.7622    0.0000 N.am    1  UNL1       -0.2904
     11 C           6.0097    1.7622    0.0000 C.3     1  UNL1        0.1390
     12 C           5.5097    2.6282    0.0000 C.3     1  UNL1        0.1285
     13 C           4.5316    2.4203    0.0000 C.3     1  UNL1        0.0024
     14 C           4.4271    1.4258    0.0000 C.3     1  UNL1        0.0191
     15 C           5.4451    0.0245    0.0000 C.2     1  UNL1        0.2366
     16 C           4.6361   -0.5632    0.0000 C.3     1  UNL1        0.0998
     17 C           7.0097    1.7622    0.0000 C.2     1  UNL1        0.2378
     18 C           3.7226   -0.1565    0.0000 C.3     1  UNL1       -0.0236
     19 C           2.9136   -0.7443    0.0000 C.3     1  UNL1       -0.0446
     20 C           8.5097    0.8962    0.0000 C.3     1  UNL1        0.1037
     21 C           7.0097    3.4943    0.0000 C.ar    1  UNL1        0.1211
     22 C           2.0000   -0.3376    0.0000 C.3     1  UNL1       -0.0626
     23 C           3.0181   -1.7388    0.0000 C.3     1  UNL1       -0.0626
     24 C           5.6542   -1.9645    0.0000 C.2     1  UNL1        0.2306
     25 C           9.0097    0.0302    0.0000 C.3     1  UNL1       -0.0006
     26 C           5.7587   -2.9590    0.0000 C.3     1  UNL1        0.0839
     27 C           9.0097    1.7622    0.0000 C.2     1  UNL1        0.2374
     28 C           7.5097    2.6282    0.0000 C.ar    1  UNL1       -0.0194
     29 C           7.5097    4.3603    0.0000 C.ar    1  UNL1       -0.0194
     30 C           9.8758   -0.4698    0.0000 C.ar    1  UNL1       -0.0451
     31 C           8.5097    2.6282    0.0000 C.ar    1  UNL1       -0.0511
     32 C           8.5097    4.3603    0.0000 C.ar    1  UNL1       -0.0511
     33 C           4.9497   -3.5468    0.0000 C.3     1  UNL1       -0.0410
     34 C           9.0097    3.4943    0.0000 C.ar    1  UNL1       -0.0236
     35 C          10.7418    0.0302    0.0000 C.ar    1  UNL1       -0.0585
     36 C           9.8758   -1.4698    0.0000 C.ar    1  UNL1       -0.0585
     37 C          10.0097    3.4943    0.0000 C.2     1  UNL1       -0.0407
     38 C          10.5097    2.6282    0.0000 C.2     1  UNL1       -0.0031
     39 C           6.7768   -4.3603    0.0000 C.3     1  UNL1       -0.0123
     40 C           7.4813   -2.7780    0.0000 C.3     1  UNL1       -0.0123
     41 C          11.6078   -0.4698    0.0000 C.ar    1  UNL1       -0.0615
     42 C          10.7418   -1.9698    0.0000 C.ar    1  UNL1       -0.0615
     43 C          11.6078   -1.4698    0.0000 C.ar    1  UNL1       -0.0617
     44 H           6.2619    1.1958    0.0000 H       1  UNL1        0.0634
     45 H           5.1453    3.1298    0.0000 H       1  UNL1        0.0757
     46 H           4.4668    3.0369    0.0000 H       1  UNL1        0.0317
     47 H           3.9116    2.4203    0.0000 H       1  UNL1        0.0317
     48 H           3.8206    1.5547    0.0000 H       1  UNL1        0.0466
     49 H           4.2355    0.8361    0.0000 H       1  UNL1        0.0466
     50 H           5.2025   -0.8154    0.0000 H       1  UNL1        0.0595
     51 H           4.0693    0.3575    0.0000 H       1  UNL1        0.0290
     52 H           3.2766    0.2742    0.0000 H       1  UNL1        0.0290
     53 H           3.4799   -0.9965    0.0000 H       1  UNL1        0.0296
     54 H           7.1997    0.3592    0.0000 H       1  UNL1        0.1495
     55 H           4.2390   -1.9222    0.0000 H       1  UNL1        0.1495
     56 H           8.1997    0.3592    0.0000 H       1  UNL1        0.0598
     57 H           2.2522    0.2288    0.0000 H       1  UNL1        0.0232
     58 H           1.4336   -0.0854    0.0000 H       1  UNL1        0.0232
     59 H           1.7478   -0.9040    0.0000 H       1  UNL1        0.0232
     60 H           2.4015   -1.8036    0.0000 H       1  UNL1        0.0232
     61 H           3.0829   -2.3554    0.0000 H       1  UNL1        0.0232
     62 H           3.6347   -1.6740    0.0000 H       1  UNL1        0.0232
     63 H           8.3992   -0.0775    0.0000 H       1  UNL1        0.0336
     64 H           9.4481    0.4686    0.0000 H       1  UNL1        0.0336
     65 H           5.8235   -3.5756    0.0000 H       1  UNL1        0.0555
     66 H           7.1997    2.0913    0.0000 H       1  UNL1        0.0654
     67 H           7.1997    4.8972    0.0000 H       1  UNL1        0.0654
     68 H           8.8197    2.0913    0.0000 H       1  UNL1        0.0625
     69 H           8.8197    4.8972    0.0000 H       1  UNL1        0.0625
     70 H           4.5853   -3.0452    0.0000 H       1  UNL1        0.0249
     71 H           4.4481   -3.9112    0.0000 H       1  UNL1        0.0249
     72 H           5.3141   -4.0484    0.0000 H       1  UNL1        0.0249
     73 H          10.5467    1.4522    0.0000 H       1  UNL1        0.1543
     74 H          10.7418    0.6502    0.0000 H       1  UNL1        0.0620
     75 H           9.3388   -1.7798    0.0000 H       1  UNL1        0.0620
     76 H          10.3197    4.0312    0.0000 H       1  UNL1        0.0636
     77 H          11.1297    2.6282    0.0000 H       1  UNL1        0.0782
     78 H           7.8457   -3.2796    0.0000 H       1  UNL1        0.0391
     79 H           6.1602   -4.4251    0.0000 H       1  UNL1        0.0391
     80 H           6.8416   -4.9769    0.0000 H       1  UNL1        0.0391
     81 H           7.3934   -4.2955    0.0000 H       1  UNL1        0.0391
     82 H           7.9829   -2.4136    0.0000 H       1  UNL1        0.0391
     83 H           7.1168   -2.2764    0.0000 H       1  UNL1        0.0391
     84 H          12.1447   -0.1598    0.0000 H       1  UNL1        0.0618
     85 H          10.7418   -2.5898    0.0000 H       1  UNL1        0.0618
     86 H          12.1448   -1.7798    0.0000 H       1  UNL1        0.0618
@<TRIPOS>BOND
     1     1    12    1
     2     1    21    1
     3     2    15    2
     4     3    17    2
     5     4    24    2
     6     5    27    2
     7     6    11    1
     8     6    14    1
     9     6    15   am
    10     7    17   am
    11     7    20    1
    12     7    54    1
    13     8    16    1
    14     8    24   am
    15     8    55    1
    16     9    26    1
    17     9    39    1
    18     9    40    1
    19    10    27   am
    20    10    38    1
    21    10    73    1
    22    11    12    1
    23    11    17    1
    24    11    44    1
    25    12    13    1
    26    12    45    1
    27    13    14    1
    28    13    46    1
    29    13    47    1
    30    14    48    1
    31    14    49    1
    32    15    16    1
    33    16    18    1
    34    16    50    1
    35    18    19    1
    36    18    51    1
    37    18    52    1
    38    19    22    1
    39    19    23    1
    40    19    53    1
    41    20    25    1
    42    20    27    1
    43    20    56    1
    44    21    28   ar
    45    21    29   ar
    46    22    57    1
    47    22    58    1
    48    22    59    1
    49    23    60    1
    50    23    61    1
    51    23    62    1
    52    24    26    1
    53    25    30    1
    54    25    63    1
    55    25    64    1
    56    26    33    1
    57    26    65    1
    58    28    31   ar
    59    28    66    1
    60    29    32   ar
    61    29    67    1
    62    30    35   ar
    63    30    36   ar
    64    31    34   ar
    65    31    68    1
    66    32    34   ar
    67    32    69    1
    68    33    70    1
    69    33    71    1
    70    33    72    1
    71    34    37    1
    72    35    41   ar
    73    35    74    1
    74    36    42   ar
    75    36    75    1
    76    37    38    2
    77    37    76    1
    78    38    77    1
    79    39    79    1
    80    39    80    1
    81    39    81    1
    82    40    78    1
    83    40    82    1
    84    40    83    1
    85    41    43   ar
    86    41    84    1
    87    42    43   ar
    88    42    85    1
    89    43    86    1
