@<TRIPOS>MOLECULE
IMPHY012879
 52 55 0 0 0
SMALL
GASTEIGER

@<TRIPOS>ATOM
      1 O           5.1350   -2.4276    0.0000 O.3     1  UNL1       -0.3313
      2 O           6.8671   -2.4276    0.0000 O.3     1  UNL1       -0.4608
      3 O           5.1350   -5.4276    0.0000 O.3     1  UNL1       -0.3864
      4 O           3.4030   -4.4276    0.0000 O.3     1  UNL1       -0.3865
      5 O           6.8671   -4.4276    0.0000 O.3     1  UNL1       -0.3829
      6 O           2.5369   -2.9276    0.0000 O.3     1  UNL1       -0.3924
      7 O           7.7331    2.0724    0.0000 O.2     1  UNL1       -0.4507
      8 O           5.1350    1.5724    0.0000 O.3     1  UNL1       -0.5007
      9 O           5.1350    3.5724    0.0000 O.2     1  UNL1       -0.2830
     10 O           5.9793    5.1039    0.0000 O.3     1  UNL1       -0.5058
     11 O           9.5191    5.1175    0.0000 O.3     1  UNL1       -0.5065
     12 C           5.1350   -4.4276    0.0000 C.3     1  UNL1        0.1152
     13 C           4.2690   -3.9276    0.0000 C.3     1  UNL1        0.1120
     14 C           6.0010   -3.9276    0.0000 C.3     1  UNL1        0.1454
     15 C           4.2690   -2.9276    0.0000 C.3     1  UNL1        0.1140
     16 C           6.0010   -2.9276    0.0000 C.3     1  UNL1        0.2308
     17 C           3.4030   -2.4276    0.0000 C.3     1  UNL1        0.0731
     18 C           6.8671   -1.4276    0.0000 C.ar    1  UNL1        0.1240
     19 C           7.7331   -0.9276    0.0000 C.ar    1  UNL1       -0.0192
     20 C           6.0010   -0.9276    0.0000 C.ar    1  UNL1       -0.0192
     21 C           6.8671    0.5724    0.0000 C.ar    1  UNL1        0.0213
     22 C           7.7331    0.0725    0.0000 C.ar    1  UNL1       -0.0475
     23 C           6.0010    0.0725    0.0000 C.ar    1  UNL1       -0.0475
     24 C           6.8671    1.5724    0.0000 C.ar    1  UNL1        0.1806
     25 C           6.8671    3.5724    0.0000 C.ar    1  UNL1        0.1092
     26 C           6.0010    2.0724    0.0000 C.ar    1  UNL1        0.2082
     27 C           7.7331    3.0724    0.0000 C.ar    1  UNL1        0.1465
     28 C           6.0010    3.0724    0.0000 C.ar    1  UNL1        0.2379
     29 C           6.8510    4.6140    0.0000 C.ar    1  UNL1        0.1348
     30 C           8.6431    3.5793    0.0000 C.ar    1  UNL1        0.0231
     31 C           8.6511    4.6209    0.0000 C.ar    1  UNL1        0.1239
     32 C           7.7490    5.1417    0.0000 C.ar    1  UNL1        0.0223
     33 H           5.6720   -4.7376    0.0000 H       1  UNL1        0.0648
     34 H           3.7320   -3.6176    0.0000 H       1  UNL1        0.0647
     35 H           6.5380   -3.6176    0.0000 H       1  UNL1        0.0683
     36 H           4.2690   -2.3076    0.0000 H       1  UNL1        0.0647
     37 H           6.0010   -2.3076    0.0000 H       1  UNL1        0.1084
     38 H           3.8015   -1.9526    0.0000 H       1  UNL1        0.0584
     39 H           3.0044   -1.9526    0.0000 H       1  UNL1        0.0584
     40 H           5.6720   -5.7376    0.0000 H       1  UNL1        0.2100
     41 H           3.4030   -5.0476    0.0000 H       1  UNL1        0.2100
     42 H           7.4040   -4.1175    0.0000 H       1  UNL1        0.2102
     43 H           2.0000   -2.6176    0.0000 H       1  UNL1        0.2095
     44 H           8.2700   -1.2376    0.0000 H       1  UNL1        0.0654
     45 H           5.4641   -1.2376    0.0000 H       1  UNL1        0.0654
     46 H           8.2700    0.3824    0.0000 H       1  UNL1        0.0626
     47 H           5.4641    0.3824    0.0000 H       1  UNL1        0.0626
     48 H           9.1764    3.2631    0.0000 H       1  UNL1        0.0691
     49 H           7.7466    5.7617    0.0000 H       1  UNL1        0.0691
     50 H           4.5981    1.8824    0.0000 H       1  UNL1        0.2924
     51 H           5.9721    5.7239    0.0000 H       1  UNL1        0.2922
     52 H           9.5214    5.7376    0.0000 H       1  UNL1        0.2921
@<TRIPOS>BOND
     1     1    15    1
     2     1    16    1
     3     2    16    1
     4     2    18    1
     5    12     3    1
     6     3    40    1
     7    13     4    1
     8     4    41    1
     9    14     5    1
    10     5    42    1
    11     6    17    1
    12     6    43    1
    13     7    24   ar
    14     7    27   ar
    15     8    26    1
    16     8    50    1
    17     9    28    2
    18    10    29    1
    19    10    51    1
    20    11    31    1
    21    11    52    1
    22    12    13    1
    23    12    14    1
    24    12    33    1
    25    13    15    1
    26    13    34    1
    27    14    16    1
    28    14    35    1
    29    15    17    1
    30    15    36    1
    31    16    37    1
    32    17    38    1
    33    17    39    1
    34    18    19   ar
    35    18    20   ar
    36    19    22   ar
    37    19    44    1
    38    20    23   ar
    39    20    45    1
    40    21    22   ar
    41    21    23   ar
    42    21    24    1
    43    22    46    1
    44    23    47    1
    45    24    26   ar
    46    25    27   ar
    47    25    28   ar
    48    25    29   ar
    49    26    28   ar
    50    27    30   ar
    51    29    32   ar
    52    30    31   ar
    53    30    48    1
    54    31    32   ar
    55    32    49    1
