@<TRIPOS>MOLECULE
IMPHY008433
 65 67 0 0 0
SMALL
GASTEIGER

@<TRIPOS>ATOM
      1 O           4.6660   -3.5225    0.0000 O.3     1  UNL1       -0.3886
      2 O           6.3981   -2.5225    0.0000 O.3     1  UNL1       -0.3695
      3 O           7.3022   -1.0257    0.0000 O.2     1  UNL1       -0.5060
      4 O           3.7782    1.0089    0.0000 O.2     1  UNL1       -0.2835
      5 O           5.5442    2.0467    0.0000 O.2     1  UNL1       -0.2834
      6 O           8.1898    2.5192    0.0000 O.3     1  UNL1       -0.4642
      7 O           7.3296    4.0225    0.0000 O.2     1  UNL1       -0.2512
      8 C           3.8000   -2.0225    0.0000 C.3     1  UNL1        0.0024
      9 C           3.8000   -1.0225    0.0000 C.3     1  UNL1        0.0029
     10 C           2.9061   -2.5572    0.0000 C.3     1  UNL1       -0.0288
     11 C           4.6660   -2.5225    0.0000 C.3     1  UNL1        0.0896
     12 C           2.9061   -0.4879    0.0000 C.3     1  UNL1       -0.0431
     13 C           2.0000   -2.0434    0.0000 C.3     1  UNL1       -0.0475
     14 C           2.0000   -1.0017    0.0000 C.3     1  UNL1       -0.0518
     15 C           4.6660   -0.5225    0.0000 C.2     1  UNL1        0.0186
     16 C           5.5321   -2.0225    0.0000 C.3     1  UNL1        0.1134
     17 C           3.8000   -0.0225    0.0000 C.3     1  UNL1       -0.0551
     18 C           5.5321   -1.0225    0.0000 C.2     1  UNL1        0.0329
     19 C           2.4161   -3.4290    0.0000 C.3     1  UNL1       -0.0594
     20 C           3.4160   -3.4174    0.0000 C.3     1  UNL1       -0.0594
     21 C           4.6500    0.5190    0.0000 C.2     1  UNL1        0.2298
     22 C           6.4421   -0.5157    0.0000 C.2     1  UNL1        0.1303
     23 C           6.4501    0.5259    0.0000 C.2     1  UNL1        0.0508
     24 C           5.5480    1.0467    0.0000 C.2     1  UNL1        0.2325
     25 C           7.3180    1.0226    0.0000 C.3     1  UNL1        0.0228
     26 C           6.3981   -3.5225    0.0000 C.3     1  UNL1        0.0457
     27 C           7.3219    2.0226    0.0000 C.3     1  UNL1        0.0992
     28 C           8.1821    0.5192    0.0000 C.3     1  UNL1       -0.0550
     29 C           7.2641   -4.0225    0.0000 C.3     1  UNL1       -0.0415
     30 C           8.1937    3.5192    0.0000 C.2     1  UNL1        0.3040
     31 C           9.0616    4.0159    0.0000 C.3     1  UNL1        0.0332
     32 H           3.8066   -2.8725    0.0000 H       1  UNL1        0.0340
     33 H           5.2030   -2.8325    0.0000 H       1  UNL1        0.0626
     34 H           3.3107   -0.0181    0.0000 H       1  UNL1        0.0274
     35 H           2.5124   -0.0089    0.0000 H       1  UNL1        0.0274
     36 H           1.3891   -1.9373    0.0000 H       1  UNL1        0.0271
     37 H           1.7909   -2.6270    0.0000 H       1  UNL1        0.0271
     38 H           1.7909   -0.4180    0.0000 H       1  UNL1        0.0266
     39 H           1.3891   -1.1078    0.0000 H       1  UNL1        0.0266
     40 H           6.0690   -1.7125    0.0000 H       1  UNL1        0.0674
     41 H           4.4200   -0.0225    0.0000 H       1  UNL1        0.0238
     42 H           3.8000    0.5975    0.0000 H       1  UNL1        0.0238
     43 H           3.1800   -0.0225    0.0000 H       1  UNL1        0.0238
     44 H           2.8827   -3.7336    0.0000 H       1  UNL1        0.0235
     45 H           3.7322   -3.9507    0.0000 H       1  UNL1        0.0235
     46 H           3.9494   -3.1012    0.0000 H       1  UNL1        0.0235
     47 H           1.8756   -3.1252    0.0000 H       1  UNL1        0.0235
     48 H           2.1123   -3.9694    0.0000 H       1  UNL1        0.0235
     49 H           2.9566   -3.7327    0.0000 H       1  UNL1        0.0235
     50 H           5.2030   -3.8325    0.0000 H       1  UNL1        0.2099
     51 H           7.8562    1.3305    0.0000 H       1  UNL1        0.0381
     52 H           5.7875   -3.4149    0.0000 H       1  UNL1        0.0557
     53 H           6.1860   -4.1052    0.0000 H       1  UNL1        0.0557
     54 H           7.8427   -0.7219    0.0000 H       1  UNL1        0.2922
     55 H           7.1121    2.6060    0.0000 H       1  UNL1        0.0703
     56 H           6.7109    1.9172    0.0000 H       1  UNL1        0.0703
     57 H           7.8701   -0.0165    0.0000 H       1  UNL1        0.0237
     58 H           8.7179    0.2072    0.0000 H       1  UNL1        0.0237
     59 H           8.4942    1.0550    0.0000 H       1  UNL1        0.0237
     60 H           6.9541   -4.5595    0.0000 H       1  UNL1        0.0252
     61 H           7.8010   -4.3325    0.0000 H       1  UNL1        0.0252
     62 H           7.5741   -3.4856    0.0000 H       1  UNL1        0.0252
     63 H           9.3696    3.4777    0.0000 H       1  UNL1        0.0342
     64 H           9.5998    4.3238    0.0000 H       1  UNL1        0.0342
     65 H           8.7537    4.5540    0.0000 H       1  UNL1        0.0342
@<TRIPOS>BOND
     1    11     1    1
     2     1    50    1
     3    16     2    1
     4     2    26    1
     5     3    22    1
     6     3    54    1
     7     4    21    2
     8     5    24    2
     9     6    27    1
    10     6    30    1
    11     7    30    2
    12     8     9    1
    13     8    10    1
    14     8    11    1
    15     8    32    1
    16     9    12    1
    17     9    15    1
    18     9    17    1
    19    10    13    1
    20    10    19    1
    21    10    20    1
    22    11    16    1
    23    11    33    1
    24    12    14    1
    25    12    34    1
    26    12    35    1
    27    13    14    1
    28    13    36    1
    29    13    37    1
    30    14    38    1
    31    14    39    1
    32    15    18    2
    33    15    21    1
    34    16    18    1
    35    16    40    1
    36    17    41    1
    37    17    42    1
    38    17    43    1
    39    18    22    1
    40    19    47    1
    41    19    48    1
    42    19    49    1
    43    20    44    1
    44    20    45    1
    45    20    46    1
    46    21    24    1
    47    22    23    2
    48    23    24    1
    49    23    25    1
    50    25    27    1
    51    25    28    1
    52    25    51    1
    53    26    29    1
    54    26    52    1
    55    26    53    1
    56    27    55    1
    57    27    56    1
    58    28    57    1
    59    28    58    1
    60    28    59    1
    61    29    60    1
    62    29    61    1
    63    29    62    1
    64    30    31    1
    65    31    63    1
    66    31    64    1
    67    31    65    1
