@<TRIPOS>MOLECULE
IMPHY002311
 109 113 0 0 0
SMALL
GASTEIGER

@<TRIPOS>ATOM
      1 O          11.2957    4.6679    0.0000 O.3     1  UNL1       -0.3914
      2 O           9.5407   -0.2530    0.0000 O.2     1  UNL1       -0.2968
      3 O          12.3739    3.6539    0.0000 O.3     1  UNL1       -0.3810
      4 O           6.8671   -1.8984    0.0000 O.3     1  UNL1       -0.3379
      5 O          13.4321    1.5062    0.0000 O.2     1  UNL1       -0.2943
      6 O           5.0597   -0.8456    0.0000 O.2     1  UNL1       -0.2937
      7 O           5.1350   -1.8984    0.0000 O.3     1  UNL1       -0.3405
      8 O          16.1377    4.4524    0.0000 O.3     1  UNL1       -0.4588
      9 O           6.8671   -3.8984    0.0000 O.3     1  UNL1       -0.3841
     10 O           5.1350   -4.8984    0.0000 O.3     1  UNL1       -0.3864
     11 O           3.4030   -3.8984    0.0000 O.3     1  UNL1       -0.3865
     12 O           2.5369   -2.3984    0.0000 O.3     1  UNL1       -0.3924
     13 O          17.4134    3.2808    0.0000 O.2     1  UNL1       -0.2511
     14 C           9.5754    2.7468    0.0000 C.3     1  UNL1       -0.0195
     15 C          10.4356    2.2368    0.0000 C.3     1  UNL1       -0.0115
     16 C           8.7037    2.2568    0.0000 C.3     1  UNL1       -0.0190
     17 C           8.6921    1.2569    0.0000 C.3     1  UNL1        0.0364
     18 C          11.1803    2.8953    0.0000 C.3     1  UNL1        0.0268
     19 C           9.7959    3.7161    0.0000 C.3     1  UNL1       -0.0202
     20 C          10.7857    3.8077    0.0000 C.3     1  UNL1        0.0621
     21 C          10.4241    1.2369    0.0000 C.3     1  UNL1        0.0127
     22 C           7.7920    0.7326    0.0000 C.3     1  UNL1       -0.0039
     23 C           9.5523    0.7469    0.0000 C.2     1  UNL1        0.1406
     24 C           7.8160    2.8018    0.0000 C.3     1  UNL1       -0.0302
     25 C           8.7152    3.2568    0.0000 C.3     1  UNL1       -0.0587
     26 C          11.2958    1.7268    0.0000 C.3     1  UNL1       -0.0582
     27 C          12.1564    2.6778    0.0000 C.3     1  UNL1        0.1264
     28 C           6.8920    1.2569    0.0000 C.2     1  UNL1       -0.0565
     29 C           8.6806    0.2570    0.0000 C.3     1  UNL1       -0.0520
     30 C           7.8046   -0.3523    0.0000 C.3     1  UNL1       -0.0121
     31 C           6.9040    2.2985    0.0000 C.2     1  UNL1       -0.0832
     32 C           5.9421    0.7326    0.0000 C.3     1  UNL1        0.0471
     33 C           6.8671   -0.8984    0.0000 C.3     1  UNL1        0.1209
     34 C          11.9388    1.7018    0.0000 C.3     1  UNL1       -0.0287
     35 C          13.1324    2.4603    0.0000 C.2     1  UNL1        0.1648
     36 C           5.9295   -0.3523    0.0000 C.2     1  UNL1        0.1714
     37 C           4.9422    0.7480    0.0000 C.3     1  UNL1       -0.0492
     38 C           5.4555    1.6062    0.0000 C.3     1  UNL1       -0.0492
     39 C          13.8088    3.1968    0.0000 C.3     1  UNL1        0.0123
     40 C          14.7849    2.9793    0.0000 C.3     1  UNL1       -0.0066
     41 C           6.0010   -2.3984    0.0000 C.3     1  UNL1        0.1887
     42 C          15.4613    3.7158    0.0000 C.3     1  UNL1        0.1084
     43 C           6.0010   -3.3984    0.0000 C.3     1  UNL1        0.1341
     44 C           5.1350   -3.8984    0.0000 C.3     1  UNL1        0.1141
     45 C           4.2690   -2.3984    0.0000 C.3     1  UNL1        0.1130
     46 C           4.2690   -3.3984    0.0000 C.3     1  UNL1        0.1119
     47 C          16.1978    3.0394    0.0000 C.3     1  UNL1       -0.0251
     48 C          14.7247    4.3922    0.0000 C.3     1  UNL1       -0.0251
     49 C           3.4030   -1.8984    0.0000 C.3     1  UNL1        0.0730
     50 C          17.1137    4.2348    0.0000 C.2     1  UNL1        0.3044
     51 C          17.7901    4.9714    0.0000 C.3     1  UNL1        0.0333
     52 H           9.4348    1.8234    0.0000 H       1  UNL1        0.0319
     53 H          11.7220    3.5504    0.0000 H       1  UNL1        0.0363
     54 H           9.8039    4.3361    0.0000 H       1  UNL1        0.0296
     55 H           9.1802    3.7893    0.0000 H       1  UNL1        0.0296
     56 H          10.4543    4.3317    0.0000 H       1  UNL1        0.0597
     57 H          10.6294    0.6519    0.0000 H       1  UNL1        0.0347
     58 H          11.0358    1.3375    0.0000 H       1  UNL1        0.0347
     59 H           8.5314    0.3133    0.0000 H       1  UNL1        0.0356
     60 H           8.2260    3.2669    0.0000 H       1  UNL1        0.0311
     61 H           7.4279    3.2854    0.0000 H       1  UNL1        0.0311
     62 H           9.0314    3.7901    0.0000 H       1  UNL1        0.0235
     63 H           8.1819    3.5730    0.0000 H       1  UNL1        0.0235
     64 H           8.3991    2.7235    0.0000 H       1  UNL1        0.0235
     65 H          10.9796    1.1935    0.0000 H       1  UNL1        0.0235
     66 H          11.8291    1.4106    0.0000 H       1  UNL1        0.0235
     67 H          11.6120    2.2602    0.0000 H       1  UNL1        0.0235
     68 H           8.0606    0.2641    0.0000 H       1  UNL1        0.0239
     69 H           8.6734   -0.3630    0.0000 H       1  UNL1        0.0239
     70 H           9.3005    0.2498    0.0000 H       1  UNL1        0.0239
     71 H           8.0204   -0.9335    0.0000 H       1  UNL1        0.0300
     72 H           8.4142   -0.2392    0.0000 H       1  UNL1        0.0300
     73 H           6.3719    2.6167    0.0000 H       1  UNL1        0.0572
     74 H           7.4046   -1.2074    0.0000 H       1  UNL1        0.0677
     75 H          10.9919    5.2084    0.0000 H       1  UNL1        0.2098
     76 H          11.3337    1.8366    0.0000 H       1  UNL1        0.0262
     77 H          11.8040    1.0966    0.0000 H       1  UNL1        0.0262
     78 H          12.5440    1.5669    0.0000 H       1  UNL1        0.0262
     79 H          12.9654    3.8396    0.0000 H       1  UNL1        0.2107
     80 H           4.9518    1.3680    0.0000 H       1  UNL1        0.0242
     81 H           4.3223    0.7576    0.0000 H       1  UNL1        0.0242
     82 H           4.9326    0.1281    0.0000 H       1  UNL1        0.0242
     83 H           5.9971    1.9079    0.0000 H       1  UNL1        0.0242
     84 H           5.1538    2.1479    0.0000 H       1  UNL1        0.0242
     85 H           4.9138    1.3046    0.0000 H       1  UNL1        0.0242
     86 H          14.0467    3.7694    0.0000 H       1  UNL1        0.0344
     87 H          13.2863    3.5305    0.0000 H       1  UNL1        0.0344
     88 H          14.5470    2.4068    0.0000 H       1  UNL1        0.0307
     89 H          15.3074    2.6456    0.0000 H       1  UNL1        0.0307
     90 H           6.0010   -1.7784    0.0000 H       1  UNL1        0.0938
     91 H           6.0010   -4.0184    0.0000 H       1  UNL1        0.0671
     92 H           4.5981   -4.2084    0.0000 H       1  UNL1        0.0648
     93 H           4.2690   -1.7784    0.0000 H       1  UNL1        0.0647
     94 H           3.7320   -3.0884    0.0000 H       1  UNL1        0.0647
     95 H          15.7784    2.5828    0.0000 H       1  UNL1        0.0268
     96 H          16.6545    2.6201    0.0000 H       1  UNL1        0.0268
     97 H          16.6172    3.4961    0.0000 H       1  UNL1        0.0268
     98 H          15.1441    4.8489    0.0000 H       1  UNL1        0.0268
     99 H          14.2681    4.8116    0.0000 H       1  UNL1        0.0268
    100 H          14.3054    3.9356    0.0000 H       1  UNL1        0.0268
    101 H           6.8671   -4.5184    0.0000 H       1  UNL1        0.2101
    102 H           3.8015   -1.4235    0.0000 H       1  UNL1        0.0584
    103 H           3.0044   -1.4235    0.0000 H       1  UNL1        0.0584
    104 H           4.5981   -5.2084    0.0000 H       1  UNL1        0.2100
    105 H           3.4030   -4.5184    0.0000 H       1  UNL1        0.2100
    106 H           2.0000   -2.0884    0.0000 H       1  UNL1        0.2095
    107 H          18.2468    4.5520    0.0000 H       1  UNL1        0.0342
    108 H          18.2095    5.4280    0.0000 H       1  UNL1        0.0342
    109 H          17.3335    5.3907    0.0000 H       1  UNL1        0.0342
@<TRIPOS>BOND
     1    20     1    1
     2     1    75    1
     3     2    23    2
     4    27     3    1
     5     3    79    1
     6    33     4    1
     7    41     4    1
     8     5    35    2
     9     6    36    2
    10     7    41    1
    11     7    45    1
    12     8    42    1
    13     8    50    1
    14    43     9    1
    15     9   101    1
    16    44    10    1
    17    10   104    1
    18    46    11    1
    19    11   105    1
    20    12    49    1
    21    12   106    1
    22    13    50    2
    23    14    15    1
    24    14    16    1
    25    14    19    1
    26    14    25    1
    27    15    18    1
    28    15    21    1
    29    15    26    1
    30    16    17    1
    31    16    24    1
    32    16    52    1
    33    17    22    1
    34    17    23    1
    35    17    29    1
    36    18    20    1
    37    18    27    1
    38    18    53    1
    39    19    20    1
    40    19    54    1
    41    19    55    1
    42    20    56    1
    43    21    23    1
    44    21    57    1
    45    21    58    1
    46    22    28    1
    47    22    30    1
    48    22    59    1
    49    24    31    1
    50    24    60    1
    51    24    61    1
    52    25    62    1
    53    25    63    1
    54    25    64    1
    55    26    65    1
    56    26    66    1
    57    26    67    1
    58    27    34    1
    59    27    35    1
    60    28    31    2
    61    28    32    1
    62    29    68    1
    63    29    69    1
    64    29    70    1
    65    30    33    1
    66    30    71    1
    67    30    72    1
    68    31    73    1
    69    32    36    1
    70    32    37    1
    71    32    38    1
    72    33    36    1
    73    33    74    1
    74    34    76    1
    75    34    77    1
    76    34    78    1
    77    35    39    1
    78    37    80    1
    79    37    81    1
    80    37    82    1
    81    38    83    1
    82    38    84    1
    83    38    85    1
    84    39    40    1
    85    39    86    1
    86    39    87    1
    87    40    42    1
    88    40    88    1
    89    40    89    1
    90    41    43    1
    91    41    90    1
    92    42    47    1
    93    42    48    1
    94    43    44    1
    95    43    91    1
    96    44    46    1
    97    44    92    1
    98    45    46    1
    99    45    49    1
   100    45    93    1
   101    46    94    1
   102    47    95    1
   103    47    96    1
   104    47    97    1
   105    48    98    1
   106    48    99    1
   107    48   100    1
   108    49   102    1
   109    49   103    1
   110    50    51    1
   111    51   107    1
   112    51   108    1
   113    51   109    1
