@<TRIPOS>MOLECULE
IMPHY004967
 44 45 0 0 0
SMALL
GASTEIGER

@<TRIPOS>ATOM
      1 O           6.3301    0.5950    0.0000 O.3     1  UNL1       -0.4539
      2 O          10.6603    3.0950    0.0000 O.3     1  UNL1       -0.5033
      3 O           8.0622    1.5950    0.0000 O.2     1  UNL1       -0.2934
      4 O          10.6603    5.0950    0.0000 O.3     1  UNL1       -0.5033
      5 O           2.8660   -4.4050    0.0000 O.3     1  UNL1       -0.4914
      6 O           4.5981   -5.4050    0.0000 O.3     1  UNL1       -0.5033
      7 O           4.5981    0.5950    0.0000 O.2     1  UNL1       -0.2456
      8 C           7.1962    3.0950    0.0000 C.3     1  UNL1        0.0346
      9 C           8.0622    3.5950    0.0000 C.ar    1  UNL1       -0.0365
     10 C           7.1962    2.0950    0.0000 C.2     1  UNL1        0.1748
     11 C           8.9282    3.0950    0.0000 C.ar    1  UNL1       -0.0129
     12 C           8.0622    4.5950    0.0000 C.ar    1  UNL1       -0.0545
     13 C           6.3301    1.5950    0.0000 C.3     1  UNL1        0.1508
     14 C           9.7942    3.5950    0.0000 C.ar    1  UNL1        0.1585
     15 C           8.9282    5.0950    0.0000 C.ar    1  UNL1       -0.0163
     16 C           9.7942    4.5950    0.0000 C.ar    1  UNL1        0.1582
     17 C           4.5981   -2.4050    0.0000 C.ar    1  UNL1       -0.0211
     18 C           3.7320   -2.9050    0.0000 C.ar    1  UNL1       -0.0092
     19 C           3.7320   -3.9050    0.0000 C.ar    1  UNL1        0.1618
     20 C           5.4641   -2.9050    0.0000 C.ar    1  UNL1       -0.0509
     21 C           4.5981   -4.4050    0.0000 C.ar    1  UNL1        0.1585
     22 C           4.5981   -1.4050    0.0000 C.2     1  UNL1       -0.0477
     23 C           5.4641   -3.9050    0.0000 C.ar    1  UNL1       -0.0160
     24 C           5.4641   -0.9050    0.0000 C.2     1  UNL1        0.0231
     25 C           5.4641    0.0950    0.0000 C.2     1  UNL1        0.3323
     26 C           2.0000   -3.9050    0.0000 C.3     1  UNL1        0.0790
     27 H           6.9841    3.6776    0.0000 H       1  UNL1        0.0391
     28 H           6.5856    2.9873    0.0000 H       1  UNL1        0.0391
     29 H           8.9282    2.4750    0.0000 H       1  UNL1        0.0658
     30 H           7.5252    4.9050    0.0000 H       1  UNL1        0.0622
     31 H           6.1181    2.1776    0.0000 H       1  UNL1        0.0778
     32 H           5.7196    1.4873    0.0000 H       1  UNL1        0.0778
     33 H           8.9282    5.7150    0.0000 H       1  UNL1        0.0655
     34 H           3.1951   -2.5950    0.0000 H       1  UNL1        0.0661
     35 H           6.0010   -2.5950    0.0000 H       1  UNL1        0.0625
     36 H           4.0611   -1.0950    0.0000 H       1  UNL1        0.0626
     37 H           6.0010   -4.2150    0.0000 H       1  UNL1        0.0655
     38 H           6.0010   -1.2150    0.0000 H       1  UNL1        0.0689
     39 H          11.1972    3.4050    0.0000 H       1  UNL1        0.2923
     40 H          10.6603    5.7150    0.0000 H       1  UNL1        0.2923
     41 H           5.1350   -5.7150    0.0000 H       1  UNL1        0.2923
     42 H           2.3100   -3.3681    0.0000 H       1  UNL1        0.0660
     43 H           1.4631   -3.5950    0.0000 H       1  UNL1        0.0660
     44 H           1.6900   -4.4419    0.0000 H       1  UNL1        0.0660
@<TRIPOS>BOND
     1     1    13    1
     2     1    25    1
     3     2    14    1
     4     2    39    1
     5     3    10    2
     6     4    16    1
     7     4    40    1
     8     5    19    1
     9     5    26    1
    10     6    21    1
    11     6    41    1
    12     7    25    2
    13     8     9    1
    14     8    10    1
    15     8    27    1
    16     8    28    1
    17     9    11   ar
    18     9    12   ar
    19    10    13    1
    20    11    14   ar
    21    11    29    1
    22    12    15   ar
    23    12    30    1
    24    13    31    1
    25    13    32    1
    26    14    16   ar
    27    15    16   ar
    28    15    33    1
    29    17    18   ar
    30    17    20   ar
    31    17    22    1
    32    18    19   ar
    33    18    34    1
    34    19    21   ar
    35    20    23   ar
    36    20    35    1
    37    21    23   ar
    38    22    24    2
    39    22    36    1
    40    23    37    1
    41    24    25    1
    42    24    38    1
    43    26    42    1
    44    26    43    1
    45    26    44    1
