@<TRIPOS>MOLECULE
IMPHY006801
 36 39 0 0 0
SMALL
GASTEIGER

@<TRIPOS>ATOM
      1 O           5.5444   -0.0738    0.0000 O.3     1  UNL1       -0.4599
      2 O           2.4078   -2.4862    0.0000 O.2     1  UNL1       -0.2921
      3 O           7.1280    0.7309    0.0000 O.2     1  UNL1       -0.2505
      4 C           3.7322   -0.2691    0.0000 C.3     1  UNL1        0.0456
      5 C           2.8662    0.2309    0.0000 C.3     1  UNL1       -0.0053
      6 C           2.8659   -0.7695    0.0000 C.3     1  UNL1        0.0494
      7 C           4.5982    0.2309    0.0000 C.3     1  UNL1        0.1170
      8 C           2.8662    1.2309    0.0000 C.3     1  UNL1       -0.0454
      9 C           4.5982    1.2309    0.0000 C.3     1  UNL1        0.0097
     10 C           4.4697   -0.9363    0.0000 C.2     1  UNL1       -0.0696
     11 C           3.0754   -1.7417    0.0000 C.2     1  UNL1        0.1632
     12 C           3.7322    1.7309    0.0000 C.3     1  UNL1       -0.0455
     13 C           2.0001    0.7309    0.0000 C.3     1  UNL1       -0.0577
     14 C           2.0000   -1.2697    0.0000 C.3     1  UNL1       -0.0510
     15 C           4.0646   -1.8446    0.0000 C.2     1  UNL1       -0.0218
     16 C           5.5444    1.5357    0.0000 C.3     1  UNL1        0.0598
     17 C           6.1280    0.7309    0.0000 C.2     1  UNL1        0.3106
     18 C           5.8551    2.4862    0.0000 C.3     1  UNL1       -0.0519
     19 H           4.6882   -0.6143    0.0000 H       1  UNL1        0.0746
     20 H           2.6541    1.8135    0.0000 H       1  UNL1        0.0271
     21 H           2.2556    1.1233    0.0000 H       1  UNL1        0.0271
     22 H           4.6882    2.0762    0.0000 H       1  UNL1        0.0345
     23 H           5.0763   -0.8083    0.0000 H       1  UNL1        0.0580
     24 H           4.1307    2.2059    0.0000 H       1  UNL1        0.0269
     25 H           3.3336    2.2059    0.0000 H       1  UNL1        0.0269
     26 H           2.3101    1.2679    0.0000 H       1  UNL1        0.0236
     27 H           1.4632    1.0409    0.0000 H       1  UNL1        0.0236
     28 H           1.6901    0.1940    0.0000 H       1  UNL1        0.0236
     29 H           1.6899   -0.7329    0.0000 H       1  UNL1        0.0240
     30 H           1.4631   -1.5799    0.0000 H       1  UNL1        0.0240
     31 H           2.3101   -1.8066    0.0000 H       1  UNL1        0.0240
     32 H           4.3748   -2.3814    0.0000 H       1  UNL1        0.0649
     33 H           6.1569    1.6319    0.0000 H       1  UNL1        0.0415
     34 H           6.4444    2.2936    0.0000 H       1  UNL1        0.0238
     35 H           6.0477    3.0755    0.0000 H       1  UNL1        0.0238
     36 H           5.2658    2.6788    0.0000 H       1  UNL1        0.0238
@<TRIPOS>BOND
     1     1     7    1
     2     1    17    1
     3     2    11    2
     4     3    17    2
     5     4     5    1
     6     4     6    1
     7     4     7    1
     8     4    10    1
     9     5     6    1
    10     5     8    1
    11     5    13    1
    12     6    11    1
    13     6    14    1
    14     7     9    1
    15     7    19    1
    16     8    12    1
    17     8    20    1
    18     8    21    1
    19     9    12    1
    20     9    16    1
    21     9    22    1
    22    10    15    2
    23    10    23    1
    24    11    15    1
    25    12    24    1
    26    12    25    1
    27    13    26    1
    28    13    27    1
    29    13    28    1
    30    14    29    1
    31    14    30    1
    32    14    31    1
    33    15    32    1
    34    16    17    1
    35    16    18    1
    36    16    33    1
    37    18    34    1
    38    18    35    1
    39    18    36    1
