@<TRIPOS>MOLECULE
IMPHY013798
 73 70 0 0 0
SMALL
GASTEIGER

@<TRIPOS>ATOM
      1 CA          9.7466    7.8100    0.0000 Ca      1  UNL1        0.0000
      2 O           5.4165    3.3100    0.0000 O.3     2  UNL2        0.0000
      3 O           7.1486    3.3100    0.0000 O.3     2  UNL2        0.0000
      4 O           5.4165    0.3100    0.0000 O.3     2  UNL2        0.0000
      5 O           7.1486    1.3100    0.0000 O.3     2  UNL2        0.0000
      6 O           3.6844    1.3100    0.0000 O.3     2  UNL2        0.0000
      7 O           3.6844    4.3100    0.0000 O.3     2  UNL2        0.0000
      8 O           8.8806    4.3100    0.0000 O.3     2  UNL2        0.0000
      9 O           5.4165    4.3100    0.0000 O.3     2  UNL2        0.0000
     10 O           7.1486    6.3100    0.0000 O.3     2  UNL2        0.0000
     11 O           5.4165    6.3100    0.0000 O.3     2  UNL2        0.0000
     12 O           8.8806    7.3100    0.0000 O.co2   2  UNL2       -0.5000
     13 O           9.7466    5.8100    0.0000 O.co2   2  UNL2       -0.5000
     14 O          10.6127   12.3100    0.0000 O.3     3  UNL3        0.0000
     15 O          12.3447   10.3100    0.0000 O.3     3  UNL3        0.0000
     16 O          13.2107   11.8100    0.0000 O.3     3  UNL3        0.0000
     17 O           9.7466   10.8100    0.0000 O.3     3  UNL3        0.0000
     18 O           9.7466    8.8100    0.0000 O.co2   3  UNL3       -0.5000
     19 O          13.2107   13.8100    0.0000 O.3     3  UNL3        0.0000
     20 O          11.4787    8.8100    0.0000 O.co2   3  UNL3       -0.5000
     21 O           0.5369    6.9650    0.0000 O.3     4  HOH4        0.0000
     22 C           5.4165    1.3100    0.0000 C.3     2  UNL2        0.0000
     23 C           6.2825    1.8100    0.0000 C.3     2  UNL2        0.0000
     24 C           4.5505    1.8100    0.0000 C.3     2  UNL2        0.0000
     25 C           6.2825    2.8100    0.0000 C.3     2  UNL2        0.0000
     26 C           4.5505    2.8100    0.0000 C.3     2  UNL2        0.0000
     27 C           7.1486    4.3100    0.0000 C.3     2  UNL2        0.0000
     28 C           3.6844    3.3100    0.0000 C.3     2  UNL2        0.0000
     29 C           8.0146    4.8100    0.0000 C.3     2  UNL2        0.0000
     30 C           6.2825    4.8100    0.0000 C.3     2  UNL2        0.0000
     31 C           8.0146    5.8100    0.0000 C.3     2  UNL2        0.0000
     32 C           6.2825    5.8100    0.0000 C.3     2  UNL2        0.0000
     33 C           8.8806    6.3100    0.0000 C.2     2  UNL2        0.0000
     34 C          11.4787   11.8100    0.0000 C.3     3  UNL3        0.0000
     35 C          11.4787   10.8100    0.0000 C.3     3  UNL3        0.0000
     36 C          12.3447   12.3100    0.0000 C.3     3  UNL3        0.0000
     37 C          10.6127   10.3100    0.0000 C.3     3  UNL3        0.0000
     38 C          12.3447   13.3100    0.0000 C.3     3  UNL3        0.0000
     39 C          10.6127    9.3100    0.0000 C.2     3  UNL3        0.0000
     40 H           4.8796    1.0000    0.0000 H       2  UNL2        0.0000
     41 H           6.2825    1.1900    0.0000 H       2  UNL2        0.0000
     42 H           4.5505    1.1900    0.0000 H       2  UNL2        0.0000
     43 H           6.8195    2.5000    0.0000 H       2  UNL2        0.0000
     44 H           4.5505    3.4300    0.0000 H       2  UNL2        0.0000
     45 H           7.6855    4.0000    0.0000 H       2  UNL2        0.0000
     46 H           3.0739    3.4177    0.0000 H       2  UNL2        0.0000
     47 H           3.4724    2.7274    0.0000 H       2  UNL2        0.0000
     48 H           8.5515    5.1200    0.0000 H       2  UNL2        0.0000
     49 H           6.2825    4.1900    0.0000 H       2  UNL2        0.0000
     50 H           4.8796    0.0000    0.0000 H       2  UNL2        0.0000
     51 H           7.1486    0.6900    0.0000 H       2  UNL2        0.0000
     52 H           3.1475    1.6200    0.0000 H       2  UNL2        0.0000
     53 H           7.4776    5.5000    0.0000 H       2  UNL2        0.0000
     54 H           6.8931    5.7023    0.0000 H       2  UNL2        0.0000
     55 H           6.4946    6.3926    0.0000 H       2  UNL2        0.0000
     56 H           3.1475    4.6200    0.0000 H       2  UNL2        0.0000
     57 H           9.4175    4.6200    0.0000 H       2  UNL2        0.0000
     58 H           4.8796    4.6200    0.0000 H       2  UNL2        0.0000
     59 H           7.1486    6.9300    0.0000 H       2  UNL2        0.0000
     60 H           5.4165    6.9300    0.0000 H       2  UNL2        0.0000
     61 H          10.9417   11.5000    0.0000 H       3  UNL3        0.0000
     62 H          12.0156   11.1200    0.0000 H       3  UNL3        0.0000
     63 H          12.8816   12.6200    0.0000 H       3  UNL3        0.0000
     64 H          10.6127   10.9300    0.0000 H       3  UNL3        0.0000
     65 H          12.1327   13.8926    0.0000 H       3  UNL3        0.0000
     66 H          11.7341   13.2023    0.0000 H       3  UNL3        0.0000
     67 H          10.6127   12.9300    0.0000 H       3  UNL3        0.0000
     68 H          12.8816   10.6200    0.0000 H       3  UNL3        0.0000
     69 H          13.7477   12.1200    0.0000 H       3  UNL3        0.0000
     70 H           9.7466   11.4300    0.0000 H       3  UNL3        0.0000
     71 H          13.2107   14.4300    0.0000 H       3  UNL3        0.0000
     72 H           1.0739    7.2750    0.0000 H       0  HOH0        0.0000
     73 H           0.0000    7.2750    0.0000 H       0  HOH0        0.0000
@<TRIPOS>UNITY_ATOM_ATTR
1 1
charge 2
12 1
charge -1
18 1
charge -1
@<TRIPOS>BOND
     1     2    25    1
     2     2    26    1
     3    25     3    1
     4    27     3    1
     5    22     4    1
     6     4    50    1
     7    23     5    1
     8     5    51    1
     9    24     6    1
    10     6    52    1
    11     7    28    1
    12     7    56    1
    13    29     8    1
    14     8    57    1
    15    30     9    1
    16     9    58    1
    17    31    10    1
    18    10    59    1
    19    11    32    1
    20    11    60    1
    21    12    33   ar
    22    13    33   ar
    23    34    14    1
    24    14    67    1
    25    35    15    1
    26    15    68    1
    27    36    16    1
    28    16    69    1
    29    37    17    1
    30    17    70    1
    31    18    39   ar
    32    19    38    1
    33    19    71    1
    34    20    39   ar
    35    21    72    1
    36    21    73    1
    37    22    23    1
    38    22    24    1
    39    22    40    1
    40    23    25    1
    41    23    41    1
    42    24    26    1
    43    24    42    1
    44    25    43    1
    45    26    28    1
    46    26    44    1
    47    27    29    1
    48    27    30    1
    49    27    45    1
    50    28    46    1
    51    28    47    1
    52    29    31    1
    53    29    48    1
    54    30    32    1
    55    30    49    1
    56    31    33    1
    57    31    53    1
    58    32    54    1
    59    32    55    1
    60    34    35    1
    61    34    36    1
    62    34    61    1
    63    35    37    1
    64    35    62    1
    65    36    38    1
    66    36    63    1
    67    37    39    1
    68    37    64    1
    69    38    65    1
    70    38    66    1
