@<TRIPOS>MOLECULE
IMPHY015897
 15 15 0 0 0
SMALL
GASTEIGER

@<TRIPOS>ATOM
      1 O           2.0000   -1.0000    0.0000 O.2     1  UNL1       -0.2744
      2 N           3.7320    1.0000    0.0000 N.3     1  UNL1       -0.3067
      3 N           3.7320   -1.0000    0.0000 N.am    1  UNL1       -0.3130
      4 C           4.5981    0.5000    0.0000 C.3     1  UNL1        0.0119
      5 C           4.5981   -0.5000    0.0000 C.3     1  UNL1        0.0242
      6 C           2.8660    0.5000    0.0000 C.3     1  UNL1        0.0733
      7 C           2.8660   -0.5000    0.0000 C.2     1  UNL1        0.2269
      8 H           5.2087    0.3923    0.0000 H       1  UNL1        0.0439
      9 H           4.8101    1.0826    0.0000 H       1  UNL1        0.0439
     10 H           4.8101   -1.0826    0.0000 H       1  UNL1        0.0474
     11 H           5.2087   -0.3923    0.0000 H       1  UNL1        0.0474
     12 H           2.6540    1.0826    0.0000 H       1  UNL1        0.0520
     13 H           2.2554    0.3923    0.0000 H       1  UNL1        0.0520
     14 H           3.7320    1.6200    0.0000 H       1  UNL1        0.1224
     15 H           3.7320   -1.6200    0.0000 H       1  UNL1        0.1488
@<TRIPOS>BOND
     1     1     7    2
     2     2     4    1
     3     2     6    1
     4     2    14    1
     5     3     5    1
     6     3     7   am
     7     3    15    1
     8     4     5    1
     9     4     8    1
    10     4     9    1
    11     5    10    1
    12     5    11    1
    13     6     7    1
    14     6    12    1
    15     6    13    1
