@<TRIPOS>MOLECULE
IMPHY003050
 19 19 0 0 0
SMALL
GASTEIGER

@<TRIPOS>ATOM
      1 O           5.1350    1.2500    0.0000 O.3     1  UNL1       -0.4644
      2 O           2.5369   -0.2500    0.0000 O.3     1  UNL1       -0.5059
      3 O           3.4030    1.2500    0.0000 O.2     1  UNL1       -0.2448
      4 C           4.2690   -0.2500    0.0000 C.ar    1  UNL1        0.1002
      5 C           3.4030   -0.7500    0.0000 C.ar    1  UNL1        0.1308
      6 C           5.1350   -0.7500    0.0000 C.ar    1  UNL1       -0.0442
      7 C           3.4030   -1.7500    0.0000 C.ar    1  UNL1       -0.0194
      8 C           5.1350   -1.7500    0.0000 C.ar    1  UNL1       -0.0608
      9 C           4.2690   -2.2500    0.0000 C.ar    1  UNL1       -0.0583
     10 C           4.2690    0.7500    0.0000 C.2     1  UNL1        0.3425
     11 C           5.1350    2.2500    0.0000 C.3     1  UNL1        0.0820
     12 H           5.6720   -0.4400    0.0000 H       1  UNL1        0.0627
     13 H           2.8660   -2.0600    0.0000 H       1  UNL1        0.0654
     14 H           5.6720   -2.0600    0.0000 H       1  UNL1        0.0618
     15 H           4.2690   -2.8700    0.0000 H       1  UNL1        0.0619
     16 H           2.0000   -0.5600    0.0000 H       1  UNL1        0.2922
     17 H           5.7550    2.2500    0.0000 H       1  UNL1        0.0661
     18 H           5.1350    2.8700    0.0000 H       1  UNL1        0.0661
     19 H           4.5150    2.2500    0.0000 H       1  UNL1        0.0661
@<TRIPOS>BOND
     1     1    10    1
     2     1    11    1
     3     2     5    1
     4     2    16    1
     5     3    10    2
     6     4     5   ar
     7     4     6   ar
     8     4    10    1
     9     5     7   ar
    10     6     8   ar
    11     6    12    1
    12     7     9   ar
    13     7    13    1
    14     8     9   ar
    15     8    14    1
    16     9    15    1
    17    11    17    1
    18    11    18    1
    19    11    19    1
