@<TRIPOS>MOLECULE
IMPHY014438
 33 32 0 0 0
SMALL
GASTEIGER

@<TRIPOS>ATOM
      1 O           2.5369    1.0000    0.0000 O.3     1  UNL1       -0.3878
      2 C           4.2690    1.0000    0.0000 C.3     1  UNL1       -0.0198
      3 C           5.1350    0.5000    0.0000 C.3     1  UNL1       -0.0321
      4 C           3.4030    0.5000    0.0000 C.3     1  UNL1        0.0734
      5 C           6.0010    1.0000    0.0000 C.2     1  UNL1       -0.0878
      6 C           7.7331    1.0000    0.0000 C.3     1  UNL1       -0.0313
      7 C           6.8671    0.5000    0.0000 C.2     1  UNL1       -0.0876
      8 C           8.5991    0.5000    0.0000 C.3     1  UNL1       -0.0313
      9 C           3.4030   -0.5000    0.0000 C.2     1  UNL1       -0.0630
     10 C           9.4651    1.0000    0.0000 C.2     1  UNL1       -0.0879
     11 C          10.3312    0.5000    0.0000 C.2     1  UNL1       -0.0910
     12 C           2.5369   -1.0000    0.0000 C.2     1  UNL1       -0.1002
     13 C          11.1972    1.0000    0.0000 C.3     1  UNL1       -0.0468
     14 H           4.6675    1.4750    0.0000 H       1  UNL1        0.0296
     15 H           3.8705    1.4750    0.0000 H       1  UNL1        0.0296
     16 H           4.7365    0.0251    0.0000 H       1  UNL1        0.0308
     17 H           5.5335    0.0251    0.0000 H       1  UNL1        0.0308
     18 H           3.4030    1.1200    0.0000 H       1  UNL1        0.0637
     19 H           8.1316    1.4750    0.0000 H       1  UNL1        0.0310
     20 H           7.3346    1.4750    0.0000 H       1  UNL1        0.0310
     21 H           6.0010    1.6200    0.0000 H       1  UNL1        0.0569
     22 H           6.8671   -0.1200    0.0000 H       1  UNL1        0.0569
     23 H           8.2006    0.0251    0.0000 H       1  UNL1        0.0310
     24 H           8.9976    0.0251    0.0000 H       1  UNL1        0.0310
     25 H           3.9399   -0.8100    0.0000 H       1  UNL1        0.0592
     26 H           9.4651    1.6200    0.0000 H       1  UNL1        0.0569
     27 H           2.0000    0.6900    0.0000 H       1  UNL1        0.2102
     28 H          10.3312   -0.1200    0.0000 H       1  UNL1        0.0566
     29 H           2.0000   -0.6900    0.0000 H       1  UNL1        0.0533
     30 H           2.5369   -1.6200    0.0000 H       1  UNL1        0.0533
     31 H          11.5072    0.4631    0.0000 H       1  UNL1        0.0272
     32 H          11.7341    1.3100    0.0000 H       1  UNL1        0.0272
     33 H          10.8872    1.5369    0.0000 H       1  UNL1        0.0272
@<TRIPOS>BOND
     1     1     4    1
     2     1    27    1
     3     2     3    1
     4     2     4    1
     5     2    14    1
     6     2    15    1
     7     3     5    1
     8     3    16    1
     9     3    17    1
    10     4     9    1
    11     4    18    1
    12     5     7    2
    13     5    21    1
    14     6     7    1
    15     6     8    1
    16     6    19    1
    17     6    20    1
    18     7    22    1
    19     8    10    1
    20     8    23    1
    21     8    24    1
    22     9    12    2
    23     9    25    1
    24    10    11    2
    25    10    26    1
    26    11    13    1
    27    11    28    1
    28    12    29    1
    29    12    30    1
    30    13    31    1
    31    13    32    1
    32    13    33    1
