@<TRIPOS>MOLECULE
IMPHY006687
 71 76 0 0 0
SMALL
GASTEIGER

@<TRIPOS>ATOM
      1 O           5.6604   -1.7190    0.0000 O.3     1  UNL1       -0.3512
      2 O           8.3550   -2.2606    0.0000 O.3     1  UNL1       -0.4539
      3 O           4.8225   -2.2467    0.0000 O.2     1  UNL1       -0.2967
      4 O           2.6697    1.6753    0.0000 O.3     1  UNL1       -0.4582
      5 O           5.9204    2.1251    0.0000 O.3     1  UNL1       -0.4604
      6 O           7.4490   -3.7814    0.0000 O.2     1  UNL1       -0.2478
      7 O          10.2758    0.5059    0.0000 O.2     1  UNL1       -0.4706
      8 O           2.7595    3.3840    0.0000 O.2     1  UNL1       -0.2507
      9 O           5.4138    3.7814    0.0000 O.2     1  UNL1       -0.2512
     10 C           6.5709   -1.2121    0.0000 C.3     1  UNL1        0.1283
     11 C           5.7049   -0.7121    0.0000 C.3     1  UNL1        0.0622
     12 C           7.4369   -0.7121    0.0000 C.3     1  UNL1        0.0422
     13 C           5.7049    0.2879    0.0000 C.3     1  UNL1       -0.0170
     14 C           6.5548   -2.2536    0.0000 C.3     1  UNL1        0.1861
     15 C           4.8109    0.8225    0.0000 C.3     1  UNL1        0.0161
     16 C           7.4369    0.2879    0.0000 C.3     1  UNL1       -0.0408
     17 C           6.5709    0.7879    0.0000 C.3     1  UNL1       -0.0479
     18 C           3.9049    0.3087    0.0000 C.3     1  UNL1        0.0142
     19 C           4.8109   -1.2468    0.0000 C.2     1  UNL1        0.1427
     20 C           8.3469   -1.2190    0.0000 C.3     1  UNL1        0.1391
     21 C           6.3550   -1.8379    0.0000 C.3     1  UNL1       -0.0498
     22 C           3.9049   -0.7330    0.0000 C.3     1  UNL1        0.0135
     23 C           4.9642    1.8326    0.0000 C.3     1  UNL1        0.1191
     24 C           8.3029   -0.2121    0.0000 C.3     1  UNL1       -0.0531
     25 C           7.4529   -2.7814    0.0000 C.2     1  UNL1        0.3398
     26 C           2.9594    0.6956    0.0000 C.3     1  UNL1        0.1118
     27 C           5.6808    1.3158    0.0000 C.3     1  UNL1       -0.0555
     28 C           9.2071   -0.7090    0.0000 C.ar    1  UNL1        0.0310
     29 C           4.2721    2.5840    0.0000 C.3     1  UNL1        0.0825
     30 C           2.0000    0.4134    0.0000 C.3     1  UNL1       -0.0248
     31 C           2.5819   -0.2304    0.0000 C.3     1  UNL1       -0.0248
     32 C           3.2528    2.5142    0.0000 C.2     1  UNL1        0.3112
     33 C          10.1253   -1.1052    0.0000 C.ar    1  UNL1       -0.0172
     34 C           9.3001    0.2867    0.0000 C.ar    1  UNL1        0.0984
     35 C           6.1452    3.0995    0.0000 C.2     1  UNL1        0.3042
     36 C          10.7858   -0.3543    0.0000 C.ar    1  UNL1        0.0921
     37 C           7.1015    3.3920    0.0000 C.3     1  UNL1        0.0332
     38 H           6.4410   -0.1371    0.0000 H       1  UNL1        0.0318
     39 H           6.1214   -2.9849    0.0000 H       1  UNL1        0.0743
     40 H           8.0475    0.1802    0.0000 H       1  UNL1        0.0273
     41 H           7.6490    0.8705    0.0000 H       1  UNL1        0.0273
     42 H           6.9694    1.2628    0.0000 H       1  UNL1        0.0269
     43 H           6.1724    1.2628    0.0000 H       1  UNL1        0.0269
     44 H           3.1991   -0.1651    0.0000 H       1  UNL1        0.0350
     45 H           8.8868   -1.5238    0.0000 H       1  UNL1        0.0793
     46 H           3.2940   -0.6269    0.0000 H       1  UNL1        0.0346
     47 H           3.6958   -1.3167    0.0000 H       1  UNL1        0.0346
     48 H           5.8181   -2.1480    0.0000 H       1  UNL1        0.0240
     49 H           6.6650   -2.3748    0.0000 H       1  UNL1        0.0240
     50 H           6.8919   -1.5279    0.0000 H       1  UNL1        0.0240
     51 H           5.1264    2.4310    0.0000 H       1  UNL1        0.0745
     52 H           8.6130   -0.7491    0.0000 H       1  UNL1        0.0237
     53 H           8.8399    0.0979    0.0000 H       1  UNL1        0.0237
     54 H           7.9930    0.3248    0.0000 H       1  UNL1        0.0237
     55 H           5.9866    0.7765    0.0000 H       1  UNL1        0.0236
     56 H           6.2201    1.6217    0.0000 H       1  UNL1        0.0236
     57 H           5.3749    1.8551    0.0000 H       1  UNL1        0.0236
     58 H           4.8104    2.8916    0.0000 H       1  UNL1        0.0414
     59 H           4.0926    3.1775    0.0000 H       1  UNL1        0.0414
     60 H           2.0077    0.0036    0.0000 H       1  UNL1        0.0268
     61 H           2.3478   -0.8045    0.0000 H       1  UNL1        0.0268
     62 H           3.1560   -0.4645    0.0000 H       1  UNL1        0.0268
     63 H           1.8250    1.0082    0.0000 H       1  UNL1        0.0268
     64 H           1.4052    0.2384    0.0000 H       1  UNL1        0.0268
     65 H           2.1750   -0.1814    0.0000 H       1  UNL1        0.0268
     66 H          10.2612   -1.7101    0.0000 H       1  UNL1        0.0653
     67 H           8.8346    0.6962    0.0000 H       1  UNL1        0.1033
     68 H          11.4031   -0.4120    0.0000 H       1  UNL1        0.1029
     69 H           7.2829    2.7992    0.0000 H       1  UNL1        0.0342
     70 H           7.6944    3.5734    0.0000 H       1  UNL1        0.0342
     71 H           6.9201    3.9849    0.0000 H       1  UNL1        0.0342
@<TRIPOS>BOND
     1    10     1    1
     2     1    14    1
     3     2    20    1
     4     2    25    1
     5     3    19    2
     6     4    26    1
     7     4    32    1
     8    23     5    1
     9     5    35    1
    10     6    25    2
    11     7    34   ar
    12     7    36   ar
    13     8    32    2
    14     9    35    2
    15    10    11    1
    16    10    12    1
    17    10    14    1
    18    11    13    1
    19    11    19    1
    20    11    21    1
    21    12    16    1
    22    12    20    1
    23    12    24    1
    24    13    15    1
    25    13    17    1
    26    13    38    1
    27    14    25    1
    28    14    39    1
    29    15    18    1
    30    15    23    1
    31    15    27    1
    32    16    17    1
    33    16    40    1
    34    16    41    1
    35    17    42    1
    36    17    43    1
    37    18    22    1
    38    18    26    1
    39    18    44    1
    40    19    22    1
    41    20    28    1
    42    20    45    1
    43    21    48    1
    44    21    49    1
    45    21    50    1
    46    22    46    1
    47    22    47    1
    48    23    29    1
    49    23    51    1
    50    24    52    1
    51    24    53    1
    52    24    54    1
    53    26    30    1
    54    26    31    1
    55    27    55    1
    56    27    56    1
    57    27    57    1
    58    28    33   ar
    59    28    34   ar
    60    29    32    1
    61    29    58    1
    62    29    59    1
    63    30    63    1
    64    30    64    1
    65    30    65    1
    66    31    60    1
    67    31    61    1
    68    31    62    1
    69    33    36   ar
    70    33    66    1
    71    34    67    1
    72    35    37    1
    73    36    68    1
    74    37    69    1
    75    37    70    1
    76    37    71    1
