@<TRIPOS>MOLECULE
IMPHY014485
 82 86 0 0 0
SMALL
GASTEIGER

@<TRIPOS>ATOM
      1 O           6.4664    2.7080    0.0000 O.3     1  UNL1       -0.3761
      2 O          11.9289   -0.8874    0.0000 O.3     1  UNL1       -0.4559
      3 O           7.9619    3.5907    0.0000 O.2     1  UNL1       -0.2934
      4 O           6.4987   -1.5618    0.0000 O.3     1  UNL1       -0.3803
      5 O           3.7503    2.3307    0.0000 O.3     1  UNL1       -0.4306
      6 O           5.2030    3.2741    0.0000 O.2     1  UNL1       -0.2500
      7 O           4.7167   -2.4698    0.0000 O.3     1  UNL1       -0.4661
      8 O          12.6674    0.7631    0.0000 O.2     1  UNL1       -0.2508
      9 O           3.9304   -0.9265    0.0000 O.2     1  UNL1       -0.2479
     10 O          11.6957   -3.9945    0.0000 O.2     1  UNL1       -0.4706
     11 C           6.9841    0.7761    0.0000 C.3     1  UNL1        0.0421
     12 C           8.2051   -0.0895    0.0000 C.3     1  UNL1       -0.0069
     13 C           5.7124   -0.0185    0.0000 C.3     1  UNL1        0.0142
     14 C           4.9352    0.6108    0.0000 C.3     1  UNL1       -0.0120
     15 C           6.7252    1.7420    0.0000 C.3     1  UNL1        0.1558
     16 C           9.0341    0.4697    0.0000 C.2     1  UNL1       -0.0621
     17 C           5.2936    1.5444    0.0000 C.3     1  UNL1        0.1014
     18 C          10.0579   -1.0110    0.0000 C.3     1  UNL1        0.0163
     19 C           9.9773    0.0275    0.0000 C.3     1  UNL1       -0.0004
     20 C           7.4619    2.7247    0.0000 C.2     1  UNL1        0.1761
     21 C           8.2617   -1.1296    0.0000 C.3     1  UNL1       -0.0450
     22 C           9.1944   -1.5935    0.0000 C.3     1  UNL1       -0.0428
     23 C           8.7585    1.4309    0.0000 C.2     1  UNL1       -0.0450
     24 C           6.7252   -0.1898    0.0000 C.3     1  UNL1       -0.0518
     25 C           5.6600   -1.0172    0.0000 C.3     1  UNL1        0.1557
     26 C          11.0294   -1.4941    0.0000 C.3     1  UNL1        0.1368
     27 C           3.9693    0.8696    0.0000 C.3     1  UNL1       -0.0586
     28 C           4.2281   -0.0963    0.0000 C.3     1  UNL1       -0.0586
     29 C          10.8625    0.6549    0.0000 C.3     1  UNL1        0.0521
     30 C          10.1354   -2.0080    0.0000 C.3     1  UNL1       -0.0553
     31 C           4.7490    2.3830    0.0000 C.2     1  UNL1        0.3192
     32 C          11.8449    0.1943    0.0000 C.2     1  UNL1        0.3083
     33 C          11.0953   -2.4919    0.0000 C.ar    1  UNL1        0.0310
     34 C           4.7690   -1.4711    0.0000 C.2     1  UNL1        0.3361
     35 C          10.3268   -3.1318    0.0000 C.ar    1  UNL1       -0.0172
     36 C          11.9413   -3.0251    0.0000 C.ar    1  UNL1        0.0984
     37 C           3.2057    3.1694    0.0000 C.2     1  UNL1        0.1016
     38 C          10.6979   -4.0604    0.0000 C.ar    1  UNL1        0.0921
     39 C           3.8257   -2.9238    0.0000 C.3     1  UNL1        0.0817
     40 C           3.6597    4.0604    0.0000 C.3     1  UNL1       -0.0066
     41 C           2.2071    3.1170    0.0000 C.2     1  UNL1       -0.0491
     42 C           1.6624    3.9557    0.0000 C.3     1  UNL1       -0.0434
     43 H           7.5004   -0.5649    0.0000 H       1  UNL1        0.0355
     44 H           4.9359   -0.3642    0.0000 H       1  UNL1        0.0346
     45 H           4.6770    1.4796    0.0000 H       1  UNL1        0.0455
     46 H           9.9016    0.8741    0.0000 H       1  UNL1        0.0357
     47 H           8.0847   -1.7238    0.0000 H       1  UNL1        0.0271
     48 H           7.6460   -1.0569    0.0000 H       1  UNL1        0.0271
     49 H           9.6239   -2.0406    0.0000 H       1  UNL1        0.0272
     50 H           8.8274   -2.0932    0.0000 H       1  UNL1        0.0272
     51 H           9.1681    1.8963    0.0000 H       1  UNL1        0.0605
     52 H           7.3240   -0.3503    0.0000 H       1  UNL1        0.0239
     53 H           6.5647   -0.7886    0.0000 H       1  UNL1        0.0239
     54 H           6.1263   -0.0293    0.0000 H       1  UNL1        0.0239
     55 H           5.6276   -1.6363    0.0000 H       1  UNL1        0.0713
     56 H          11.5862   -1.7670    0.0000 H       1  UNL1        0.0792
     57 H           3.8088    0.2707    0.0000 H       1  UNL1        0.0235
     58 H           3.3704    1.0301    0.0000 H       1  UNL1        0.0235
     59 H           4.1298    1.4685    0.0000 H       1  UNL1        0.0235
     60 H           4.6665   -0.5347    0.0000 H       1  UNL1        0.0235
     61 H           3.7897   -0.5347    0.0000 H       1  UNL1        0.0235
     62 H           3.7897    0.3421    0.0000 H       1  UNL1        0.0235
     63 H          10.4227    1.0919    0.0000 H       1  UNL1        0.0384
     64 H          11.2179    1.1629    0.0000 H       1  UNL1        0.0384
     65 H          10.7535   -1.9600    0.0000 H       1  UNL1        0.0237
     66 H          10.1834   -2.6261    0.0000 H       1  UNL1        0.0237
     67 H           9.5172   -2.0560    0.0000 H       1  UNL1        0.0237
     68 H           6.9048    3.1464    0.0000 H       1  UNL1        0.2112
     69 H           6.4663   -2.1809    0.0000 H       1  UNL1        0.2105
     70 H           9.7258   -2.9795    0.0000 H       1  UNL1        0.0653
     71 H          12.5171   -2.7951    0.0000 H       1  UNL1        0.1033
     72 H          10.3673   -4.5849    0.0000 H       1  UNL1        0.1029
     73 H           4.1072   -3.4762    0.0000 H       1  UNL1        0.0661
     74 H           3.2733   -3.2052    0.0000 H       1  UNL1        0.0661
     75 H           3.5442   -2.3713    0.0000 H       1  UNL1        0.0661
     76 H           3.1073    4.3419    0.0000 H       1  UNL1        0.0308
     77 H           3.9412    4.6128    0.0000 H       1  UNL1        0.0308
     78 H           4.2121    3.7789    0.0000 H       1  UNL1        0.0308
     79 H           1.9256    2.5646    0.0000 H       1  UNL1        0.0602
     80 H           1.1425    3.6180    0.0000 H       1  UNL1        0.0273
     81 H           1.3248    4.4757    0.0000 H       1  UNL1        0.0273
     82 H           2.1824    4.2934    0.0000 H       1  UNL1        0.0273
@<TRIPOS>BOND
     1    15     1    1
     2     1    68    1
     3     2    26    1
     4     2    32    1
     5     3    20    2
     6    25     4    1
     7     4    69    1
     8     5    31    1
     9     5    37    1
    10     6    31    2
    11     7    34    1
    12     7    39    1
    13     8    32    2
    14     9    34    2
    15    10    36   ar
    16    10    38   ar
    17    11    12    1
    18    11    13    1
    19    11    20    1
    20    11    24    1
    21    12    16    1
    22    12    21    1
    23    12    43    1
    24    13    14    1
    25    13    25    1
    26    13    44    1
    27    14    17    1
    28    14    27    1
    29    14    28    1
    30    15    17    1
    31    15    20    1
    32    15    23    1
    33    16    19    1
    34    16    23    2
    35    17    31    1
    36    17    45    1
    37    18    19    1
    38    18    22    1
    39    18    26    1
    40    18    30    1
    41    19    29    1
    42    19    46    1
    43    21    22    1
    44    21    47    1
    45    21    48    1
    46    22    49    1
    47    22    50    1
    48    23    51    1
    49    24    52    1
    50    24    53    1
    51    24    54    1
    52    25    34    1
    53    25    55    1
    54    26    33    1
    55    26    56    1
    56    27    57    1
    57    27    58    1
    58    27    59    1
    59    28    60    1
    60    28    61    1
    61    28    62    1
    62    29    32    1
    63    29    63    1
    64    29    64    1
    65    30    65    1
    66    30    66    1
    67    30    67    1
    68    33    35   ar
    69    33    36   ar
    70    35    38   ar
    71    35    70    1
    72    36    71    1
    73    37    40    1
    74    37    41    2
    75    38    72    1
    76    39    73    1
    77    39    74    1
    78    39    75    1
    79    40    76    1
    80    40    77    1
    81    40    78    1
    82    41    42    1
    83    41    79    1
    84    42    80    1
    85    42    81    1
    86    42    82    1
