@<TRIPOS>MOLECULE
IMPHY006337
 23 22 0 0 0
SMALL
GASTEIGER

@<TRIPOS>ATOM
      1 O           3.7320   -0.7500    0.0000 O.2     1  UNL1       -0.2927
      2 C           6.3301    0.7500    0.0000 C.3     1  UNL1       -0.0529
      3 C           5.4641    0.2500    0.0000 C.3     1  UNL1       -0.0461
      4 C           7.1962    0.2500    0.0000 C.3     1  UNL1       -0.0559
      5 C           4.5981    0.7500    0.0000 C.3     1  UNL1        0.0098
      6 C           8.0622    0.7500    0.0000 C.3     1  UNL1       -0.0653
      7 C           3.7320    0.2500    0.0000 C.2     1  UNL1        0.1555
      8 C           2.8660    0.7500    0.0000 C.2     1  UNL1       -0.0263
      9 C           2.0000    0.2500    0.0000 C.2     1  UNL1       -0.0954
     10 H           6.7287    1.2250    0.0000 H       1  UNL1        0.0265
     11 H           5.9316    1.2250    0.0000 H       1  UNL1        0.0265
     12 H           5.0656   -0.2249    0.0000 H       1  UNL1        0.0269
     13 H           5.8626   -0.2249    0.0000 H       1  UNL1        0.0269
     14 H           6.7976   -0.2249    0.0000 H       1  UNL1        0.0263
     15 H           7.5947   -0.2249    0.0000 H       1  UNL1        0.0263
     16 H           4.9966    1.2250    0.0000 H       1  UNL1        0.0345
     17 H           4.1996    1.2250    0.0000 H       1  UNL1        0.0345
     18 H           8.3722    0.2131    0.0000 H       1  UNL1        0.0230
     19 H           8.5991    1.0600    0.0000 H       1  UNL1        0.0230
     20 H           7.7522    1.2869    0.0000 H       1  UNL1        0.0230
     21 H           2.8660    1.3700    0.0000 H       1  UNL1        0.0646
     22 H           1.4631    0.5600    0.0000 H       1  UNL1        0.0536
     23 H           2.0000   -0.3700    0.0000 H       1  UNL1        0.0536
@<TRIPOS>BOND
     1     1     7    2
     2     2     3    1
     3     2     4    1
     4     2    10    1
     5     2    11    1
     6     3     5    1
     7     3    12    1
     8     3    13    1
     9     4     6    1
    10     4    14    1
    11     4    15    1
    12     5     7    1
    13     5    16    1
    14     5    17    1
    15     6    18    1
    16     6    19    1
    17     6    20    1
    18     7     8    1
    19     8     9    2
    20     8    21    1
    21     9    22    1
    22     9    23    1
