@<TRIPOS>MOLECULE
IMPHY002547
 43 46 0 0 0
SMALL
GASTEIGER

@<TRIPOS>ATOM
      1 O           9.0382    0.5679    0.0000 O.3     1  UNL1       -0.4815
      2 O           5.5022    0.5957    0.0000 O.2     1  UNL1       -0.4502
      3 O           3.7320   -1.4631    0.0000 O.3     1  UNL1       -0.4883
      4 O           5.5138   -2.4736    0.0000 O.2     1  UNL1       -0.2831
      5 C           9.0462    1.6095    0.0000 C.3     1  UNL1        0.1235
      6 C           7.2622    0.5610    0.0000 C.ar    1  UNL1        0.0595
      7 C           8.1282    0.0610    0.0000 C.ar    1  UNL1        0.1324
      8 C           8.1441    2.1303    0.0000 C.2     1  UNL1       -0.0408
      9 C           6.3961    0.0610    0.0000 C.ar    1  UNL1        0.1501
     10 C           7.2461    1.6025    0.0000 C.2     1  UNL1       -0.0478
     11 C           9.5496    2.4736    0.0000 C.3     1  UNL1       -0.0215
     12 C          10.0462    1.6056    0.0000 C.3     1  UNL1       -0.0215
     13 C           6.3961   -0.9390    0.0000 C.ar    1  UNL1        0.0685
     14 C           8.1282   -0.9390    0.0000 C.ar    1  UNL1       -0.0184
     15 C           7.2622   -1.4390    0.0000 C.ar    1  UNL1       -0.0438
     16 C           5.5022   -1.4736    0.0000 C.ar    1  UNL1        0.2346
     17 C           4.5961    0.0818    0.0000 C.ar    1  UNL1        0.1808
     18 C           4.5961   -0.9598    0.0000 C.ar    1  UNL1        0.2105
     19 C           3.7320    0.5852    0.0000 C.ar    1  UNL1        0.0211
     20 C           3.7359    1.5852    0.0000 C.ar    1  UNL1       -0.0510
     21 C           2.8641    0.0885    0.0000 C.ar    1  UNL1       -0.0510
     22 C           2.8718    2.0885    0.0000 C.ar    1  UNL1       -0.0611
     23 C           2.0000    0.5919    0.0000 C.ar    1  UNL1       -0.0611
     24 C           2.0038    1.5918    0.0000 C.ar    1  UNL1       -0.0617
     25 C           3.7359   -2.4631    0.0000 C.3     1  UNL1        0.0791
     26 H           8.1418    2.7503    0.0000 H       1  UNL1        0.0611
     27 H           6.7056    1.9063    0.0000 H       1  UNL1        0.0624
     28 H          10.0853    2.1615    0.0000 H       1  UNL1        0.0271
     29 H           9.8616    3.0093    0.0000 H       1  UNL1        0.0271
     30 H           9.0138    2.7856    0.0000 H       1  UNL1        0.0271
     31 H          10.0438    0.9856    0.0000 H       1  UNL1        0.0271
     32 H          10.6662    1.6032    0.0000 H       1  UNL1        0.0271
     33 H          10.0486    2.2256    0.0000 H       1  UNL1        0.0271
     34 H           8.6651   -1.2490    0.0000 H       1  UNL1        0.0654
     35 H           7.2622   -2.0590    0.0000 H       1  UNL1        0.0627
     36 H           4.2740    1.8931    0.0000 H       1  UNL1        0.0625
     37 H           2.8617   -0.5315    0.0000 H       1  UNL1        0.0625
     38 H           2.8742    2.7085    0.0000 H       1  UNL1        0.0618
     39 H           1.4619    0.2839    0.0000 H       1  UNL1        0.0618
     40 H           1.4681    1.9039    0.0000 H       1  UNL1        0.0618
     41 H           3.1159   -2.4655    0.0000 H       1  UNL1        0.0660
     42 H           3.7383   -3.0831    0.0000 H       1  UNL1        0.0660
     43 H           4.3559   -2.4607    0.0000 H       1  UNL1        0.0660
@<TRIPOS>BOND
     1     1     5    1
     2     1     7    1
     3     2     9   ar
     4     2    17   ar
     5     3    18    1
     6     3    25    1
     7     4    16    2
     8     5     8    1
     9     5    11    1
    10     5    12    1
    11     6     7   ar
    12     6     9   ar
    13     6    10    1
    14     7    14   ar
    15     8    10    2
    16     8    26    1
    17     9    13   ar
    18    10    27    1
    19    11    28    1
    20    11    29    1
    21    11    30    1
    22    12    31    1
    23    12    32    1
    24    12    33    1
    25    13    15   ar
    26    13    16   ar
    27    14    15   ar
    28    14    34    1
    29    15    35    1
    30    16    18   ar
    31    17    18   ar
    32    17    19    1
    33    19    20   ar
    34    19    21   ar
    35    20    22   ar
    36    20    36    1
    37    21    23   ar
    38    21    37    1
    39    22    24   ar
    40    22    38    1
    41    23    24   ar
    42    23    39    1
    43    24    40    1
    44    25    41    1
    45    25    42    1
    46    25    43    1
