@<TRIPOS>MOLECULE
IMPHY003281
 68 71 0 0 0
SMALL
GASTEIGER

@<TRIPOS>ATOM
      1 O           6.0174   -1.2621    0.0000 O.3     1  UNL1       -0.5055
      2 O           8.7167    1.2621    0.0000 O.3     1  UNL1       -0.5055
      3 O           2.5369    1.7725    0.0000 O.3     1  UNL1       -0.5031
      4 O          12.1972   -1.7725    0.0000 O.3     1  UNL1       -0.5031
      5 O           2.5369   -0.2275    0.0000 O.3     1  UNL1       -0.5028
      6 O          12.1972    0.2275    0.0000 O.3     1  UNL1       -0.5028
      7 O           3.4030   -1.7275    0.0000 O.2     1  UNL1       -0.2956
      8 O          11.3312    1.7275    0.0000 O.2     1  UNL1       -0.2956
      9 C           6.9350    0.2517    0.0000 C.ar    1  UNL1        0.0309
     10 C           7.7991   -0.2517    0.0000 C.ar    1  UNL1        0.0309
     11 C           5.1350    1.2725    0.0000 C.ar    1  UNL1       -0.0063
     12 C           9.5991   -1.2725    0.0000 C.ar    1  UNL1       -0.0063
     13 C           5.1350    0.2725    0.0000 C.ar    1  UNL1        0.0384
     14 C           9.5991   -0.2725    0.0000 C.ar    1  UNL1        0.0384
     15 C          10.4651   -1.7725    0.0000 C.ar    1  UNL1        0.0081
     16 C           4.2690    1.7725    0.0000 C.ar    1  UNL1        0.0081
     17 C           7.7991   -1.2933    0.0000 C.ar    1  UNL1       -0.0385
     18 C           6.9350    1.2933    0.0000 C.ar    1  UNL1       -0.0385
     19 C           4.2690    2.7725    0.0000 C.3     1  UNL1       -0.0174
     20 C          10.4651   -2.7725    0.0000 C.3     1  UNL1       -0.0174
     21 C           8.7052    0.2622    0.0000 C.ar    1  UNL1        0.1334
     22 C           6.0290   -0.2622    0.0000 C.ar    1  UNL1        0.1334
     23 C           6.0290    1.8071    0.0000 C.ar    1  UNL1       -0.0499
     24 C           8.7052   -1.8071    0.0000 C.ar    1  UNL1       -0.0499
     25 C           4.2690   -0.2275    0.0000 C.ar    1  UNL1        0.0704
     26 C          10.4651    0.2275    0.0000 C.ar    1  UNL1        0.0704
     27 C          11.3312   -1.2725    0.0000 C.ar    1  UNL1        0.1630
     28 C           3.4030    1.2725    0.0000 C.ar    1  UNL1        0.1630
     29 C          11.3312   -0.2725    0.0000 C.ar    1  UNL1        0.1696
     30 C           3.4030    0.2725    0.0000 C.ar    1  UNL1        0.1696
     31 C           6.9350   -1.7966    0.0000 C.3     1  UNL1       -0.0390
     32 C           7.7991    1.7966    0.0000 C.3     1  UNL1       -0.0390
     33 C          11.3312   -3.2725    0.0000 C.3     1  UNL1       -0.0585
     34 C           9.5991   -3.2725    0.0000 C.3     1  UNL1       -0.0585
     35 C           3.4030    3.2725    0.0000 C.3     1  UNL1       -0.0585
     36 C           5.1350    3.2725    0.0000 C.3     1  UNL1       -0.0585
     37 C          10.4651    1.2275    0.0000 C.2     1  UNL1        0.1545
     38 C           4.2690   -1.2275    0.0000 C.2     1  UNL1        0.1545
     39 H          11.0021   -2.4625    0.0000 H       1  UNL1        0.0345
     40 H           4.2690    3.3925    0.0000 H       1  UNL1        0.0345
     41 H           6.0218    2.4271    0.0000 H       1  UNL1        0.0627
     42 H           8.7124   -2.4271    0.0000 H       1  UNL1        0.0627
     43 H           5.4450    2.7356    0.0000 H       1  UNL1        0.0235
     44 H           5.6720    3.5825    0.0000 H       1  UNL1        0.0235
     45 H           4.8250    3.8094    0.0000 H       1  UNL1        0.0235
     46 H           3.7130    3.8094    0.0000 H       1  UNL1        0.0235
     47 H           2.8660    3.5825    0.0000 H       1  UNL1        0.0235
     48 H           3.0930    2.7356    0.0000 H       1  UNL1        0.0235
     49 H           9.2891   -2.7356    0.0000 H       1  UNL1        0.0235
     50 H           9.0622   -3.5825    0.0000 H       1  UNL1        0.0235
     51 H           9.9091   -3.8094    0.0000 H       1  UNL1        0.0235
     52 H          11.0212   -3.8094    0.0000 H       1  UNL1        0.0235
     53 H          11.8681   -3.5825    0.0000 H       1  UNL1        0.0235
     54 H          11.6412   -2.7356    0.0000 H       1  UNL1        0.0235
     55 H           6.6230   -1.2609    0.0000 H       1  UNL1        0.0278
     56 H           6.3993   -2.1087    0.0000 H       1  UNL1        0.0278
     57 H           8.1112    1.2609    0.0000 H       1  UNL1        0.0278
     58 H           8.3348    2.1087    0.0000 H       1  UNL1        0.0278
     59 H           7.4870    2.3324    0.0000 H       1  UNL1        0.0278
     60 H           7.2471   -2.3324    0.0000 H       1  UNL1        0.0278
     61 H           5.4769   -1.5659    0.0000 H       1  UNL1        0.2922
     62 H           9.2572    1.5659    0.0000 H       1  UNL1        0.2922
     63 H           4.8059   -1.5375    0.0000 H       1  UNL1        0.1083
     64 H           9.9282    1.5375    0.0000 H       1  UNL1        0.1083
     65 H           2.0000    1.4625    0.0000 H       1  UNL1        0.2923
     66 H          12.7341   -1.4625    0.0000 H       1  UNL1        0.2923
     67 H          12.7341   -0.0825    0.0000 H       1  UNL1        0.2923
     68 H           2.0000    0.0825    0.0000 H       1  UNL1        0.2923
@<TRIPOS>BOND
     1     1    22    1
     2     1    61    1
     3     2    21    1
     4     2    62    1
     5     3    28    1
     6     3    65    1
     7     4    27    1
     8     4    66    1
     9     5    30    1
    10     5    68    1
    11     6    29    1
    12     6    67    1
    13     7    38    2
    14     8    37    2
    15     9    10    1
    16     9    18   ar
    17     9    22   ar
    18    10    17   ar
    19    10    21   ar
    20    11    13   ar
    21    11    16   ar
    22    11    23   ar
    23    12    14   ar
    24    12    15   ar
    25    12    24   ar
    26    13    22   ar
    27    13    25   ar
    28    14    21   ar
    29    14    26   ar
    30    15    20    1
    31    15    27   ar
    32    16    19    1
    33    16    28   ar
    34    17    24   ar
    35    17    31    1
    36    18    23   ar
    37    18    32    1
    38    19    35    1
    39    19    36    1
    40    19    40    1
    41    20    33    1
    42    20    34    1
    43    20    39    1
    44    23    41    1
    45    24    42    1
    46    25    30   ar
    47    25    38    1
    48    26    29   ar
    49    26    37    1
    50    27    29   ar
    51    28    30   ar
    52    31    55    1
    53    31    56    1
    54    31    60    1
    55    32    57    1
    56    32    58    1
    57    32    59    1
    58    33    52    1
    59    33    53    1
    60    33    54    1
    61    34    49    1
    62    34    50    1
    63    34    51    1
    64    35    46    1
    65    35    47    1
    66    35    48    1
    67    36    43    1
    68    36    44    1
    69    36    45    1
    70    37    64    1
    71    38    63    1
