@<TRIPOS>MOLECULE
IMPHY011550
 38 40 0 0 0
SMALL
GASTEIGER

@<TRIPOS>ATOM
      1 O           4.6660    1.0000    0.0000 O.2     1  UNL1       -0.4508
      2 O           6.4144    2.0346    0.0000 O.3     1  UNL1       -0.5031
      3 O           4.6660   -2.0000    0.0000 O.2     1  UNL1       -0.2863
      4 O           2.9176   -2.0346    0.0000 O.3     1  UNL1       -0.5059
      5 C           5.5321   -0.5000    0.0000 C.ar    1  UNL1        0.0684
      6 C           5.5321    0.5000    0.0000 C.ar    1  UNL1        0.1807
      7 C           7.3321    0.5208    0.0000 C.ar    1  UNL1        0.0015
      8 C           6.4260    1.0347    0.0000 C.ar    1  UNL1        0.1633
      9 C           3.8000   -0.5000    0.0000 C.ar    1  UNL1        0.1058
     10 C           8.1962    1.0241    0.0000 C.3     1  UNL1       -0.0057
     11 C           4.6660   -1.0000    0.0000 C.ar    1  UNL1        0.2038
     12 C           3.8000    0.5000    0.0000 C.ar    1  UNL1        0.1430
     13 C           6.4260   -1.0347    0.0000 C.ar    1  UNL1       -0.0469
     14 C           7.3321   -0.5208    0.0000 C.ar    1  UNL1       -0.0539
     15 C           2.9061   -1.0347    0.0000 C.ar    1  UNL1        0.1312
     16 C           9.0641    0.5275    0.0000 C.2     1  UNL1       -0.0809
     17 C           2.9061    1.0347    0.0000 C.ar    1  UNL1       -0.0184
     18 C           9.9282    1.0308    0.0000 C.2     1  UNL1       -0.0793
     19 C           2.0000   -0.5208    0.0000 C.ar    1  UNL1       -0.0192
     20 C           2.0000    0.5208    0.0000 C.ar    1  UNL1       -0.0548
     21 C          10.7961    0.5342    0.0000 C.3     1  UNL1       -0.0440
     22 C           9.9243    2.0308    0.0000 C.3     1  UNL1       -0.0440
     23 H           8.5929    1.5006    0.0000 H       1  UNL1        0.0357
     24 H           7.7958    1.4976    0.0000 H       1  UNL1        0.0357
     25 H           6.4188   -1.6546    0.0000 H       1  UNL1        0.0626
     26 H           7.8678   -0.8329    0.0000 H       1  UNL1        0.0622
     27 H           9.0665   -0.0925    0.0000 H       1  UNL1        0.0575
     28 H           2.9132    1.6546    0.0000 H       1  UNL1        0.0654
     29 H           1.4643   -0.8329    0.0000 H       1  UNL1        0.0654
     30 H           1.4643    0.8329    0.0000 H       1  UNL1        0.0620
     31 H           6.9478    2.3508    0.0000 H       1  UNL1        0.2923
     32 H          10.4882   -0.0040    0.0000 H       1  UNL1        0.0274
     33 H          11.3343    0.2262    0.0000 H       1  UNL1        0.0274
     34 H          10.5443    2.0332    0.0000 H       1  UNL1        0.0274
     35 H           9.9220    2.6508    0.0000 H       1  UNL1        0.0274
     36 H           9.3044    2.0284    0.0000 H       1  UNL1        0.0274
     37 H          11.1041    1.0723    0.0000 H       1  UNL1        0.0274
     38 H           2.3843   -2.3508    0.0000 H       1  UNL1        0.2922
@<TRIPOS>BOND
     1     1     6   ar
     2     1    12   ar
     3     2     8    1
     4     2    31    1
     5     3    11    2
     6     4    15    1
     7     4    38    1
     8     5     6   ar
     9     5    11   ar
    10     5    13   ar
    11     6     8   ar
    12     7     8   ar
    13     7    10    1
    14     7    14   ar
    15     9    11   ar
    16     9    12   ar
    17     9    15   ar
    18    10    16    1
    19    10    23    1
    20    10    24    1
    21    12    17   ar
    22    13    14   ar
    23    13    25    1
    24    14    26    1
    25    15    19   ar
    26    16    18    2
    27    16    27    1
    28    17    20   ar
    29    17    28    1
    30    18    21    1
    31    18    22    1
    32    19    20   ar
    33    19    29    1
    34    20    30    1
    35    21    32    1
    36    21    33    1
    37    21    37    1
    38    22    34    1
    39    22    35    1
    40    22    36    1
