@<TRIPOS>MOLECULE
IMPHY003044
 50 51 0 0 0
SMALL
GASTEIGER

@<TRIPOS>ATOM
      1 O           4.2690   -4.0000    0.0000 O.3     1  UNL1       -0.4947
      2 O           2.5369   -1.0000    0.0000 O.3     1  UNL1       -0.5059
      3 O           3.4030    0.5000    0.0000 O.2     1  UNL1       -0.2872
      4 O           8.5991    3.5000    0.0000 O.3     1  UNL1       -0.4951
      5 C           5.1350   -2.5000    0.0000 C.ar    1  UNL1       -0.0011
      6 C           6.0010   -3.0000    0.0000 C.3     1  UNL1       -0.0058
      7 C           4.2690   -3.0000    0.0000 C.ar    1  UNL1        0.1270
      8 C           5.1350   -1.5000    0.0000 C.ar    1  UNL1       -0.0405
      9 C           4.2690   -1.0000    0.0000 C.ar    1  UNL1        0.0635
     10 C           3.4030   -1.5000    0.0000 C.ar    1  UNL1        0.1311
     11 C           3.4030   -2.5000    0.0000 C.ar    1  UNL1        0.0225
     12 C           6.8671   -2.5000    0.0000 C.2     1  UNL1       -0.0809
     13 C           7.7331   -3.0000    0.0000 C.2     1  UNL1       -0.0793
     14 C           4.2690    0.0000    0.0000 C.2     1  UNL1        0.1896
     15 C           5.1350    0.5000    0.0000 C.2     1  UNL1       -0.0137
     16 C           8.5991   -2.5000    0.0000 C.3     1  UNL1       -0.0440
     17 C           7.7331   -4.0000    0.0000 C.3     1  UNL1       -0.0440
     18 C           6.0010    2.0000    0.0000 C.ar    1  UNL1       -0.0247
     19 C           5.1350    1.5000    0.0000 C.2     1  UNL1       -0.0510
     20 C           3.4030   -4.5000    0.0000 C.3     1  UNL1        0.0788
     21 C           6.8671    1.5000    0.0000 C.ar    1  UNL1       -0.0511
     22 C           6.0010    3.0000    0.0000 C.ar    1  UNL1       -0.0511
     23 C           7.7331    3.0000    0.0000 C.ar    1  UNL1        0.1201
     24 C           7.7331    2.0000    0.0000 C.ar    1  UNL1       -0.0194
     25 C           6.8671    3.5000    0.0000 C.ar    1  UNL1       -0.0194
     26 C           8.5991    4.5000    0.0000 C.3     1  UNL1        0.0788
     27 H           5.6025   -3.4750    0.0000 H       1  UNL1        0.0357
     28 H           6.3996   -3.4750    0.0000 H       1  UNL1        0.0357
     29 H           5.6720   -1.1900    0.0000 H       1  UNL1        0.0630
     30 H           2.8660   -2.8100    0.0000 H       1  UNL1        0.0691
     31 H           6.8671   -1.8800    0.0000 H       1  UNL1        0.0575
     32 H           5.6720    0.1900    0.0000 H       1  UNL1        0.0656
     33 H           8.9091   -3.0369    0.0000 H       1  UNL1        0.0274
     34 H           7.1131   -4.0000    0.0000 H       1  UNL1        0.0274
     35 H           7.7331   -4.6200    0.0000 H       1  UNL1        0.0274
     36 H           8.3531   -4.0000    0.0000 H       1  UNL1        0.0274
     37 H           9.1360   -2.1900    0.0000 H       1  UNL1        0.0274
     38 H           8.2891   -1.9631    0.0000 H       1  UNL1        0.0274
     39 H           4.5981    1.8100    0.0000 H       1  UNL1        0.0625
     40 H           2.0000   -1.3100    0.0000 H       1  UNL1        0.2922
     41 H           3.0930   -3.9631    0.0000 H       1  UNL1        0.0660
     42 H           2.8660   -4.8100    0.0000 H       1  UNL1        0.0660
     43 H           3.7130   -5.0369    0.0000 H       1  UNL1        0.0660
     44 H           6.8671    0.8800    0.0000 H       1  UNL1        0.0625
     45 H           5.4641    3.3100    0.0000 H       1  UNL1        0.0625
     46 H           8.2700    1.6900    0.0000 H       1  UNL1        0.0654
     47 H           6.8671    4.1200    0.0000 H       1  UNL1        0.0654
     48 H           9.2191    4.5000    0.0000 H       1  UNL1        0.0660
     49 H           8.5991    5.1200    0.0000 H       1  UNL1        0.0660
     50 H           7.9791    4.5000    0.0000 H       1  UNL1        0.0660
@<TRIPOS>BOND
     1     1     7    1
     2     1    20    1
     3     2    10    1
     4     2    40    1
     5     3    14    2
     6     4    23    1
     7     4    26    1
     8     5     6    1
     9     5     7   ar
    10     5     8   ar
    11     6    12    1
    12     6    27    1
    13     6    28    1
    14     7    11   ar
    15     8     9   ar
    16     8    29    1
    17     9    10   ar
    18     9    14    1
    19    10    11   ar
    20    11    30    1
    21    12    13    2
    22    12    31    1
    23    13    16    1
    24    13    17    1
    25    14    15    1
    26    15    19    2
    27    15    32    1
    28    16    33    1
    29    16    37    1
    30    16    38    1
    31    17    34    1
    32    17    35    1
    33    17    36    1
    34    18    19    1
    35    18    21   ar
    36    18    22   ar
    37    19    39    1
    38    20    41    1
    39    20    42    1
    40    20    43    1
    41    21    24   ar
    42    21    44    1
    43    22    25   ar
    44    22    45    1
    45    23    24   ar
    46    23    25   ar
    47    24    46    1
    48    25    47    1
    49    26    48    1
    50    26    49    1
    51    26    50    1
