@<TRIPOS>MOLECULE
IMPHY010928
 24 22 0 0 0
SMALL
GASTEIGER

@<TRIPOS>ATOM
      1 I           1.7690    0.0000    0.0000 I       1  UNL1       -0.1065
      2 N           2.2690    4.5369    0.0000 N.3     2  UNL2       -0.3031
      3 C           3.1350    5.0369    0.0000 C.3     2  UNL2       -0.0040
      4 C           1.4030    5.0369    0.0000 C.3     2  UNL2       -0.0040
      5 C           2.2690    3.5369    0.0000 C.3     2  UNL2       -0.0040
      6 C           4.0010    4.5369    0.0000 C.3     2  UNL2       -0.0524
      7 C           0.5369    4.5369    0.0000 C.3     2  UNL2       -0.0524
      8 C           1.4030    3.0369    0.0000 C.3     2  UNL2       -0.0524
      9 H           2.4810    2.9543    0.0000 H       2  UNL2        0.0424
     10 H           2.8796    3.6446    0.0000 H       2  UNL2        0.0424
     11 H           1.8015    5.5119    0.0000 H       2  UNL2        0.0424
     12 H           1.0044    5.5119    0.0000 H       2  UNL2        0.0424
     13 H           3.5335    5.5119    0.0000 H       2  UNL2        0.0424
     14 H           2.7365    5.5119    0.0000 H       2  UNL2        0.0424
     15 H           3.6910    4.0000    0.0000 H       2  UNL2        0.0242
     16 H           4.5380    4.2269    0.0000 H       2  UNL2        0.0242
     17 H           4.3110    5.0739    0.0000 H       2  UNL2        0.0242
     18 H           0.2269    5.0739    0.0000 H       2  UNL2        0.0242
     19 H           0.0000    4.2269    0.0000 H       2  UNL2        0.0242
     20 H           0.8469    4.0000    0.0000 H       2  UNL2        0.0242
     21 H           1.0930    3.5739    0.0000 H       2  UNL2        0.0242
     22 H           0.8660    2.7269    0.0000 H       2  UNL2        0.0242
     23 H           1.7130    2.5000    0.0000 H       2  UNL2        0.0242
     24 H           2.7690    0.0000    0.0000 H       1  UNL1        0.1065
@<TRIPOS>BOND
     1     1    24    1
     2     2     3    1
     3     2     4    1
     4     2     5    1
     5     3     6    1
     6     3    13    1
     7     3    14    1
     8     4     7    1
     9     4    11    1
    10     4    12    1
    11     5     8    1
    12     5     9    1
    13     5    10    1
    14     6    15    1
    15     6    16    1
    16     6    17    1
    17     7    18    1
    18     7    19    1
    19     7    20    1
    20     8    21    1
    21     8    22    1
    22     8    23    1
