@<TRIPOS>MOLECULE
IMPHY015329
 54 54 0 0 0
SMALL
GASTEIGER

@<TRIPOS>ATOM
      1 C           2.8660   -2.7500    0.0000 C.3     1  UNL1       -0.0382
      2 C           2.8660   -1.7500    0.0000 C.3     1  UNL1       -0.0385
      3 C           2.0000   -3.2500    0.0000 C.3     1  UNL1       -0.0500
      4 C           3.7320   -3.2500    0.0000 C.3     1  UNL1       -0.0500
      5 C           2.0000   -4.2500    0.0000 C.3     1  UNL1       -0.0528
      6 C           3.7320   -4.2500    0.0000 C.3     1  UNL1       -0.0528
      7 C           3.7320   -1.2500    0.0000 C.3     1  UNL1       -0.0500
      8 C           2.8660   -4.7500    0.0000 C.3     1  UNL1       -0.0530
      9 C           2.0000   -1.2500    0.0000 C.3     1  UNL1       -0.0528
     10 C           3.7320   -0.2500    0.0000 C.3     1  UNL1       -0.0528
     11 C           4.5981    0.2500    0.0000 C.3     1  UNL1       -0.0530
     12 C           2.0000   -0.2500    0.0000 C.3     1  UNL1       -0.0650
     13 C           4.5981    1.2500    0.0000 C.3     1  UNL1       -0.0531
     14 C           5.4641    1.7500    0.0000 C.3     1  UNL1       -0.0531
     15 C           5.4641    2.7500    0.0000 C.3     1  UNL1       -0.0531
     16 C           6.3301    3.2500    0.0000 C.3     1  UNL1       -0.0533
     17 C           6.3301    4.2500    0.0000 C.3     1  UNL1       -0.0559
     18 C           7.1962    4.7500    0.0000 C.3     1  UNL1       -0.0653
     19 H           3.4030   -2.4400    0.0000 H       1  UNL1        0.0303
     20 H           2.8660   -1.1300    0.0000 H       1  UNL1        0.0303
     21 H           1.7880   -2.6674    0.0000 H       1  UNL1        0.0268
     22 H           1.3894   -3.3577    0.0000 H       1  UNL1        0.0268
     23 H           4.3426   -3.3577    0.0000 H       1  UNL1        0.0268
     24 H           3.9441   -2.6674    0.0000 H       1  UNL1        0.0268
     25 H           1.3894   -4.1423    0.0000 H       1  UNL1        0.0265
     26 H           1.7880   -4.8326    0.0000 H       1  UNL1        0.0265
     27 H           3.9441   -4.8326    0.0000 H       1  UNL1        0.0265
     28 H           4.3426   -4.1423    0.0000 H       1  UNL1        0.0265
     29 H           3.9441   -1.8326    0.0000 H       1  UNL1        0.0268
     30 H           4.3426   -1.1423    0.0000 H       1  UNL1        0.0268
     31 H           2.4675   -5.2250    0.0000 H       1  UNL1        0.0265
     32 H           3.2646   -5.2250    0.0000 H       1  UNL1        0.0265
     33 H           1.3894   -1.1423    0.0000 H       1  UNL1        0.0265
     34 H           1.7880   -1.8326    0.0000 H       1  UNL1        0.0265
     35 H           3.5200    0.3326    0.0000 H       1  UNL1        0.0265
     36 H           3.1215   -0.3577    0.0000 H       1  UNL1        0.0265
     37 H           4.8101   -0.3326    0.0000 H       1  UNL1        0.0265
     38 H           5.2087    0.3577    0.0000 H       1  UNL1        0.0265
     39 H           2.6200   -0.2500    0.0000 H       1  UNL1        0.0230
     40 H           2.0000    0.3700    0.0000 H       1  UNL1        0.0230
     41 H           1.3800   -0.2500    0.0000 H       1  UNL1        0.0230
     42 H           4.3860    1.8326    0.0000 H       1  UNL1        0.0265
     43 H           3.9875    1.1423    0.0000 H       1  UNL1        0.0265
     44 H           5.6762    1.1674    0.0000 H       1  UNL1        0.0265
     45 H           6.0747    1.8577    0.0000 H       1  UNL1        0.0265
     46 H           5.2520    3.3326    0.0000 H       1  UNL1        0.0265
     47 H           4.8535    2.6423    0.0000 H       1  UNL1        0.0265
     48 H           6.5422    2.6674    0.0000 H       1  UNL1        0.0265
     49 H           6.9407    3.3577    0.0000 H       1  UNL1        0.0265
     50 H           6.1181    4.8326    0.0000 H       1  UNL1        0.0263
     51 H           5.7196    4.1423    0.0000 H       1  UNL1        0.0263
     52 H           7.5062    4.2131    0.0000 H       1  UNL1        0.0230
     53 H           7.7331    5.0600    0.0000 H       1  UNL1        0.0230
     54 H           6.8862    5.2869    0.0000 H       1  UNL1        0.0230
@<TRIPOS>BOND
     1     1     2    1
     2     1     3    1
     3     1     4    1
     4     1    19    1
     5     2     7    1
     6     2     9    1
     7     2    20    1
     8     3     5    1
     9     3    21    1
    10     3    22    1
    11     4     6    1
    12     4    23    1
    13     4    24    1
    14     5     8    1
    15     5    25    1
    16     5    26    1
    17     6     8    1
    18     6    27    1
    19     6    28    1
    20     7    10    1
    21     7    29    1
    22     7    30    1
    23     8    31    1
    24     8    32    1
    25     9    12    1
    26     9    33    1
    27     9    34    1
    28    10    11    1
    29    10    35    1
    30    10    36    1
    31    11    13    1
    32    11    37    1
    33    11    38    1
    34    12    39    1
    35    12    40    1
    36    12    41    1
    37    13    14    1
    38    13    42    1
    39    13    43    1
    40    14    15    1
    41    14    44    1
    42    14    45    1
    43    15    16    1
    44    15    46    1
    45    15    47    1
    46    16    17    1
    47    16    48    1
    48    16    49    1
    49    17    18    1
    50    17    50    1
    51    17    51    1
    52    18    52    1
    53    18    53    1
    54    18    54    1
