@<TRIPOS>MOLECULE
IMPHY015314
 24 24 0 0 0
SMALL
GASTEIGER

@<TRIPOS>ATOM
      1 O           4.5981    1.7500    0.0000 O.3     1  UNL1       -0.4914
      2 O           2.8660    0.7500    0.0000 O.3     1  UNL1       -0.4915
      3 C           4.5981    0.7500    0.0000 C.ar    1  UNL1        0.1620
      4 C           3.7320    0.2500    0.0000 C.ar    1  UNL1        0.1615
      5 C           5.4641   -0.7500    0.0000 C.ar    1  UNL1       -0.0219
      6 C           5.4641    0.2500    0.0000 C.ar    1  UNL1       -0.0092
      7 C           3.7320   -0.7500    0.0000 C.ar    1  UNL1       -0.0157
      8 C           4.5981   -1.2500    0.0000 C.ar    1  UNL1       -0.0509
      9 C           6.3301   -1.2500    0.0000 C.2     1  UNL1       -0.0616
     10 C           5.4641    2.2500    0.0000 C.3     1  UNL1        0.0790
     11 C           2.0000    0.2500    0.0000 C.3     1  UNL1        0.0790
     12 C           6.3301   -2.2500    0.0000 C.2     1  UNL1       -0.0981
     13 H           6.0010    0.5600    0.0000 H       1  UNL1        0.0661
     14 H           3.1951   -1.0600    0.0000 H       1  UNL1        0.0655
     15 H           4.5981   -1.8700    0.0000 H       1  UNL1        0.0625
     16 H           6.8671   -0.9400    0.0000 H       1  UNL1        0.0618
     17 H           5.7741    1.7131    0.0000 H       1  UNL1        0.0660
     18 H           6.0010    2.5600    0.0000 H       1  UNL1        0.0660
     19 H           5.1541    2.7869    0.0000 H       1  UNL1        0.0660
     20 H           1.6900    0.7869    0.0000 H       1  UNL1        0.0660
     21 H           1.4631   -0.0600    0.0000 H       1  UNL1        0.0660
     22 H           2.3100   -0.2869    0.0000 H       1  UNL1        0.0660
     23 H           5.7932   -2.5600    0.0000 H       1  UNL1        0.0535
     24 H           6.8671   -2.5600    0.0000 H       1  UNL1        0.0535
@<TRIPOS>BOND
     1     1     3    1
     2     1    10    1
     3     2     4    1
     4     2    11    1
     5     3     4   ar
     6     3     6   ar
     7     4     7   ar
     8     5     6   ar
     9     5     8   ar
    10     5     9    1
    11     6    13    1
    12     7     8   ar
    13     7    14    1
    14     8    15    1
    15     9    12    2
    16     9    16    1
    17    10    17    1
    18    10    18    1
    19    10    19    1
    20    11    20    1
    21    11    21    1
    22    11    22    1
    23    12    23    1
    24    12    24    1
