@<TRIPOS>MOLECULE
IMPHY002160
 88 94 0 0 0
SMALL
GASTEIGER

@<TRIPOS>ATOM
      1 O           3.7560   -0.5407    0.0000 O.3     1  UNL1       -0.3815
      2 O           3.3148    0.2974    0.0000 O.3     1  UNL1       -0.3731
      3 O           4.8324   -0.8715    0.0000 O.3     1  UNL1       -0.3765
      4 O           6.6550    2.8904    0.0000 O.3     1  UNL1       -0.3912
      5 O           2.9382    2.4645    0.0000 O.3     1  UNL1       -0.3790
      6 O           2.5374    3.3483    0.0000 O.3     1  UNL1       -0.3793
      7 O           7.5210   -1.3448    0.0000 O.3     1  UNL1       -0.4605
      8 O           6.6550   -2.8448    0.0000 O.2     1  UNL1       -0.2449
      9 N           7.8504    1.0613    0.0000 N.3     1  UNL1       -0.2955
     10 N           9.2531   -1.3448    0.0000 N.pl3   1  UNL1       -0.3573
     11 C           5.9037    1.4566    0.0000 C.3     1  UNL1        0.0242
     12 C           5.9037    0.5890    0.0000 C.3     1  UNL1        0.0078
     13 C           6.9056    1.3505    0.0000 C.3     1  UNL1        0.0529
     14 C           4.3796    0.2411    0.0000 C.3     1  UNL1        0.1373
     15 C           5.2254    1.9975    0.0000 C.3     1  UNL1       -0.0228
     16 C           4.3796    1.8044    0.0000 C.3     1  UNL1        0.0211
     17 C           4.0031    1.0228    0.0000 C.3     1  UNL1        0.1094
     18 C           5.2254    0.0481    0.0000 C.3     1  UNL1        0.0953
     19 C           6.6550    0.1552    0.0000 C.3     1  UNL1        0.0236
     20 C           6.6550    1.8904    0.0000 C.3     1  UNL1        0.0630
     21 C           5.3031    2.8616    0.0000 C.3     1  UNL1       -0.0416
     22 C           4.5054    3.2026    0.0000 C.3     1  UNL1        0.0123
     23 C           3.9346    2.5492    0.0000 C.3     1  UNL1        0.0693
     24 C           3.3582    1.2927    0.0000 C.3     1  UNL1        0.0062
     25 C           7.8504    0.3094    0.0000 C.3     1  UNL1        0.0084
     26 C           7.4064    0.5890    0.0000 C.3     1  UNL1       -0.0404
     27 C           3.3582    2.7772    0.0000 C.3     1  UNL1        0.0662
     28 C           7.4064    1.4566    0.0000 C.3     1  UNL1       -0.0256
     29 C           6.6550   -0.8448    0.0000 C.3     1  UNL1        0.0999
     30 C           8.6543    1.6560    0.0000 C.3     1  UNL1       -0.0035
     31 C           2.3424    0.5308    0.0000 C.3     1  UNL1        0.0373
     32 C           5.4322   -1.6716    0.0000 C.3     1  UNL1        0.0369
     33 C           9.5713    1.2571    0.0000 C.3     1  UNL1       -0.0523
     34 C           2.5133    1.5593    0.0000 C.3     1  UNL1        0.0368
     35 C           2.6215    4.3448    0.0000 C.3     1  UNL1        0.0368
     36 C           7.5210   -2.3448    0.0000 C.2     1  UNL1        0.3410
     37 C           8.3871   -2.8448    0.0000 C.ar    1  UNL1        0.0795
     38 C           9.2531   -2.3448    0.0000 C.ar    1  UNL1        0.0387
     39 C           8.3871   -3.8448    0.0000 C.ar    1  UNL1       -0.0460
     40 C          10.1191   -2.8448    0.0000 C.ar    1  UNL1       -0.0402
     41 C           9.2531   -4.3448    0.0000 C.ar    1  UNL1       -0.0609
     42 C          10.1191   -3.8448    0.0000 C.ar    1  UNL1       -0.0600
     43 H           5.9672   -0.2586    0.0000 H       1  UNL1        0.0340
     44 H           7.3502    2.0750    0.0000 H       1  UNL1        0.0499
     45 H           6.0070    2.3316    0.0000 H       1  UNL1        0.0312
     46 H           3.5304    1.7663    0.0000 H       1  UNL1        0.0358
     47 H           5.4258   -0.5386    0.0000 H       1  UNL1        0.0629
     48 H           6.1181    2.2004    0.0000 H       1  UNL1        0.0599
     49 H           5.4859    3.4540    0.0000 H       1  UNL1        0.0272
     50 H           5.9115    2.7418    0.0000 H       1  UNL1        0.0272
     51 H           4.5261    4.0523    0.0000 H       1  UNL1        0.0351
     52 H           3.6545    3.1023    0.0000 H       1  UNL1        0.0603
     53 H           3.1963    0.6942    0.0000 H       1  UNL1        0.0319
     54 H           2.7436    1.3744    0.0000 H       1  UNL1        0.0319
     55 H           8.4698    0.3360    0.0000 H       1  UNL1        0.0433
     56 H           7.9033   -0.3083    0.0000 H       1  UNL1        0.0433
     57 H           8.0169    0.6967    0.0000 H       1  UNL1        0.0273
     58 H           7.6184    0.0064    0.0000 H       1  UNL1        0.0273
     59 H           3.4364    3.3923    0.0000 H       1  UNL1        0.0600
     60 H           7.6184    2.0392    0.0000 H       1  UNL1        0.0290
     61 H           8.0169    1.3489    0.0000 H       1  UNL1        0.0290
     62 H           6.4430   -1.4274    0.0000 H       1  UNL1        0.0704
     63 H           6.0444   -0.7371    0.0000 H       1  UNL1        0.0704
     64 H           3.9826   -1.1178    0.0000 H       1  UNL1        0.2105
     65 H           8.2047    2.0829    0.0000 H       1  UNL1        0.0424
     66 H           8.9966    2.1730    0.0000 H       1  UNL1        0.0424
     67 H           7.1920    3.2004    0.0000 H       1  UNL1        0.2098
     68 H           2.1977   -0.0721    0.0000 H       1  UNL1        0.0524
     69 H           1.7395    0.6755    0.0000 H       1  UNL1        0.0524
     70 H           2.4871    1.1337    0.0000 H       1  UNL1        0.0524
     71 H           5.9283   -1.2997    0.0000 H       1  UNL1        0.0524
     72 H           5.8041   -2.1677    0.0000 H       1  UNL1        0.0524
     73 H           4.9361   -2.0435    0.0000 H       1  UNL1        0.0524
     74 H           9.8186    1.8256    0.0000 H       1  UNL1        0.0242
     75 H          10.1398    1.0098    0.0000 H       1  UNL1        0.0242
     76 H           9.3240    0.6886    0.0000 H       1  UNL1        0.0242
     77 H           3.0745    1.2959    0.0000 H       1  UNL1        0.0524
     78 H           2.2499    0.9980    0.0000 H       1  UNL1        0.0524
     79 H           1.9520    1.8227    0.0000 H       1  UNL1        0.0524
     80 H           2.0037    4.3970    0.0000 H       1  UNL1        0.0524
     81 H           2.6737    4.9626    0.0000 H       1  UNL1        0.0524
     82 H           3.2393    4.2926    0.0000 H       1  UNL1        0.0524
     83 H           7.8501   -4.1548    0.0000 H       1  UNL1        0.0626
     84 H          10.6561   -2.5348    0.0000 H       1  UNL1        0.0636
     85 H           9.2531   -4.9648    0.0000 H       1  UNL1        0.0618
     86 H           9.7900   -1.0348    0.0000 H       1  UNL1        0.1423
     87 H           8.7162   -1.0348    0.0000 H       1  UNL1        0.1423
     88 H          10.6560   -4.1548    0.0000 H       1  UNL1        0.0618
@<TRIPOS>BOND
     1    14     1    1
     2     1    64    1
     3    17     2    1
     4     2    31    1
     5    18     3    1
     6     3    32    1
     7    20     4    1
     8     4    67    1
     9    23     5    1
    10     5    34    1
    11    27     6    1
    12     6    35    1
    13     7    29    1
    14     7    36    1
    15     8    36    2
    16     9    13    1
    17     9    25    1
    18     9    30    1
    19    10    38    1
    20    10    86    1
    21    10    87    1
    22    11    12    1
    23    11    13    1
    24    11    15    1
    25    11    20    1
    26    12    18    1
    27    12    19    1
    28    12    43    1
    29    13    14    1
    30    13    44    1
    31    14    17    1
    32    14    18    1
    33    15    16    1
    34    15    21    1
    35    15    45    1
    36    16    17    1
    37    16    23    1
    38    16    46    1
    39    17    24    1
    40    18    47    1
    41    19    25    1
    42    19    26    1
    43    19    29    1
    44    20    28    1
    45    20    48    1
    46    21    22    1
    47    21    49    1
    48    21    50    1
    49    22    23    1
    50    22    27    1
    51    22    51    1
    52    23    52    1
    53    24    27    1
    54    24    53    1
    55    24    54    1
    56    25    55    1
    57    25    56    1
    58    26    28    1
    59    26    57    1
    60    26    58    1
    61    27    59    1
    62    28    60    1
    63    28    61    1
    64    29    62    1
    65    29    63    1
    66    30    33    1
    67    30    65    1
    68    30    66    1
    69    31    68    1
    70    31    69    1
    71    31    70    1
    72    32    71    1
    73    32    72    1
    74    32    73    1
    75    33    74    1
    76    33    75    1
    77    33    76    1
    78    34    77    1
    79    34    78    1
    80    34    79    1
    81    35    80    1
    82    35    81    1
    83    35    82    1
    84    36    37    1
    85    37    38   ar
    86    37    39   ar
    87    38    40   ar
    88    39    41   ar
    89    39    83    1
    90    40    42   ar
    91    40    84    1
    92    41    42   ar
    93    41    85    1
    94    42    88    1
