@<TRIPOS>MOLECULE
IMPHY000110
 64 68 0 0 0
SMALL
GASTEIGER

@<TRIPOS>ATOM
      1 O           9.5506   -2.2867    0.0000 O.3     1  UNL1       -0.3695
      2 O           7.2905   -1.0266    0.0000 O.3     1  UNL1       -0.4547
      3 O          10.8106    0.2175    0.0000 O.3     1  UNL1       -0.4827
      4 O           7.3185    0.2521    0.0000 O.3     1  UNL1       -0.5064
      5 O          10.7990    3.2867    0.0000 O.2     1  UNL1       -0.2918
      6 O           6.7553   -2.6739    0.0000 O.2     1  UNL1       -0.2456
      7 C           9.0506   -0.7479    0.0000 C.3     1  UNL1        0.0543
      8 C           8.2416   -1.3357    0.0000 C.3     1  UNL1        0.1407
      9 C           8.5506   -2.2867    0.0000 C.3     1  UNL1        0.1013
     10 C           9.8596   -1.3357    0.0000 C.3     1  UNL1        0.0590
     11 C           9.0506    0.2521    0.0000 C.ar    1  UNL1        0.0452
     12 C           8.5506   -3.2867    0.0000 C.3     1  UNL1       -0.0326
     13 C           7.5995   -2.5957    0.0000 C.3     1  UNL1       -0.0326
     14 C           9.9166    0.7521    0.0000 C.ar    1  UNL1        0.1389
     15 C           8.1846    0.7521    0.0000 C.ar    1  UNL1        0.1240
     16 C           9.9166    1.7521    0.0000 C.ar    1  UNL1        0.0597
     17 C          11.7166    0.7313    0.0000 C.3     1  UNL1        0.1322
     18 C          11.7166    1.7729    0.0000 C.3     1  UNL1        0.0519
     19 C           8.1846    1.7521    0.0000 C.ar    1  UNL1       -0.0190
     20 C          10.8106    2.2868    0.0000 C.2     1  UNL1        0.1705
     21 C           9.0506    2.2521    0.0000 C.ar    1  UNL1       -0.0443
     22 C           6.5474   -1.6958    0.0000 C.2     1  UNL1        0.3323
     23 C          12.5807    0.2280    0.0000 C.ar    1  UNL1       -0.0069
     24 C           5.5963   -1.3868    0.0000 C.2     1  UNL1        0.0231
     25 C          12.5769   -0.7720    0.0000 C.ar    1  UNL1       -0.0551
     26 C          13.4487    0.7246    0.0000 C.ar    1  UNL1       -0.0551
     27 C           4.8532   -2.0559    0.0000 C.2     1  UNL1       -0.0478
     28 C          13.4410   -1.2754    0.0000 C.ar    1  UNL1       -0.0614
     29 C          14.3128    0.2213    0.0000 C.ar    1  UNL1       -0.0614
     30 C          14.3089   -0.7787    0.0000 C.ar    1  UNL1       -0.0617
     31 C           3.9021   -1.7469    0.0000 C.ar    1  UNL1       -0.0248
     32 C           3.6942   -0.7687    0.0000 C.ar    1  UNL1       -0.0546
     33 C           3.1590   -2.4160    0.0000 C.ar    1  UNL1       -0.0546
     34 C           2.7431   -0.4597    0.0000 C.ar    1  UNL1       -0.0612
     35 C           2.2079   -2.1070    0.0000 C.ar    1  UNL1       -0.0612
     36 C           2.0000   -1.1288    0.0000 C.ar    1  UNL1       -0.0617
     37 H           9.8080   -0.3620    0.0000 H       1  UNL1        0.0411
     38 H           8.1446   -0.7233    0.0000 H       1  UNL1        0.0770
     39 H          10.4260   -1.5878    0.0000 H       1  UNL1        0.0567
     40 H          10.1696   -0.7987    0.0000 H       1  UNL1        0.0567
     41 H           7.9306   -3.2867    0.0000 H       1  UNL1        0.0258
     42 H           8.5506   -3.9067    0.0000 H       1  UNL1        0.0258
     43 H           9.1706   -3.2867    0.0000 H       1  UNL1        0.0258
     44 H           7.4079   -2.0061    0.0000 H       1  UNL1        0.0258
     45 H           7.0099   -2.7873    0.0000 H       1  UNL1        0.0258
     46 H           7.7911   -3.1854    0.0000 H       1  UNL1        0.0258
     47 H          11.7130    0.1113    0.0000 H       1  UNL1        0.0789
     48 H          12.3275    1.6668    0.0000 H       1  UNL1        0.0385
     49 H          11.9257    2.3566    0.0000 H       1  UNL1        0.0385
     50 H           7.6476    2.0621    0.0000 H       1  UNL1        0.0654
     51 H           9.0506    2.8721    0.0000 H       1  UNL1        0.0627
     52 H           6.7816    0.5621    0.0000 H       1  UNL1        0.2921
     53 H           5.4674   -0.7803    0.0000 H       1  UNL1        0.0689
     54 H          12.0387   -1.0800    0.0000 H       1  UNL1        0.0621
     55 H          13.4511    1.3446    0.0000 H       1  UNL1        0.0621
     56 H           4.9821   -2.6623    0.0000 H       1  UNL1        0.0626
     57 H          13.4386   -1.8954    0.0000 H       1  UNL1        0.0618
     58 H          14.8509    0.5292    0.0000 H       1  UNL1        0.0618
     59 H          14.8446   -1.0908    0.0000 H       1  UNL1        0.0618
     60 H           4.1550   -0.3539    0.0000 H       1  UNL1        0.0623
     61 H           3.2879   -3.0224    0.0000 H       1  UNL1        0.0623
     62 H           2.6142    0.1467    0.0000 H       1  UNL1        0.0618
     63 H           1.7472   -2.5218    0.0000 H       1  UNL1        0.0618
     64 H           1.4103   -0.9372    0.0000 H       1  UNL1        0.0618
@<TRIPOS>BOND
     1     1     9    1
     2     1    10    1
     3     8     2    1
     4     2    22    1
     5     3    14    1
     6     3    17    1
     7     4    15    1
     8     4    52    1
     9     5    20    2
    10     6    22    2
    11     7     8    1
    12     7    10    1
    13     7    11    1
    14     7    37    1
    15     8     9    1
    16     8    38    1
    17     9    12    1
    18     9    13    1
    19    10    39    1
    20    10    40    1
    21    11    14   ar
    22    11    15   ar
    23    12    41    1
    24    12    42    1
    25    12    43    1
    26    13    44    1
    27    13    45    1
    28    13    46    1
    29    14    16   ar
    30    15    19   ar
    31    16    20    1
    32    16    21   ar
    33    17    18    1
    34    17    23    1
    35    17    47    1
    36    18    20    1
    37    18    48    1
    38    18    49    1
    39    19    21   ar
    40    19    50    1
    41    21    51    1
    42    22    24    1
    43    23    25   ar
    44    23    26   ar
    45    24    27    2
    46    24    53    1
    47    25    28   ar
    48    25    54    1
    49    26    29   ar
    50    26    55    1
    51    27    31    1
    52    27    56    1
    53    28    30   ar
    54    28    57    1
    55    29    30   ar
    56    29    58    1
    57    30    59    1
    58    31    32   ar
    59    31    33   ar
    60    32    34   ar
    61    32    60    1
    62    33    35   ar
    63    33    61    1
    64    34    36   ar
    65    34    62    1
    66    35    36   ar
    67    35    63    1
    68    36    64    1
