@<TRIPOS>MOLECULE
IMPHY014306
 62 61 0 0 0
SMALL
GASTEIGER

@<TRIPOS>ATOM
      1 O          21.0526   -0.2500    0.0000 O.3     1  UNL1       -0.4649
      2 O           2.8660    0.2500    0.0000 O.3     1  UNL1       -0.4649
      3 O          20.1865    1.2500    0.0000 O.2     1  UNL1       -0.2456
      4 O           3.7320   -1.2500    0.0000 O.2     1  UNL1       -0.2456
      5 C          14.1244   -0.2500    0.0000 C.2     1  UNL1       -0.0504
      6 C           9.7942    0.2500    0.0000 C.2     1  UNL1       -0.0504
      7 C          13.2583    0.2500    0.0000 C.2     1  UNL1       -0.0588
      8 C          10.6603   -0.2500    0.0000 C.2     1  UNL1       -0.0588
      9 C          14.9904    0.2500    0.0000 C.2     1  UNL1       -0.0588
     10 C           8.9282   -0.2500    0.0000 C.2     1  UNL1       -0.0588
     11 C          17.5885   -0.2500    0.0000 C.2     1  UNL1       -0.0502
     12 C           6.3301    0.2500    0.0000 C.2     1  UNL1       -0.0502
     13 C          12.3923   -0.2500    0.0000 C.2     1  UNL1       -0.0615
     14 C          11.5263    0.2500    0.0000 C.2     1  UNL1       -0.0615
     15 C          14.1244   -1.2500    0.0000 C.3     1  UNL1       -0.0397
     16 C           9.7942    1.2500    0.0000 C.3     1  UNL1       -0.0397
     17 C          15.8564   -0.2500    0.0000 C.2     1  UNL1       -0.0613
     18 C           8.0622    0.2500    0.0000 C.2     1  UNL1       -0.0613
     19 C          16.7224    0.2500    0.0000 C.2     1  UNL1       -0.0588
     20 C           7.1962   -0.2500    0.0000 C.2     1  UNL1       -0.0588
     21 C          17.5885   -1.2500    0.0000 C.3     1  UNL1       -0.0397
     22 C           6.3301    1.2500    0.0000 C.3     1  UNL1       -0.0397
     23 C          18.4545    0.2500    0.0000 C.2     1  UNL1       -0.0521
     24 C           5.4641   -0.2500    0.0000 C.2     1  UNL1       -0.0521
     25 C          19.3205   -0.2500    0.0000 C.2     1  UNL1        0.0227
     26 C           4.5981    0.2500    0.0000 C.2     1  UNL1        0.0227
     27 C          20.1865    0.2500    0.0000 C.2     1  UNL1        0.3317
     28 C           3.7320   -0.2500    0.0000 C.2     1  UNL1        0.3317
     29 C          21.9186    0.2500    0.0000 C.3     1  UNL1        0.0820
     30 C           2.0000   -0.2500    0.0000 C.3     1  UNL1        0.0820
     31 H          13.2583    0.8700    0.0000 H       1  UNL1        0.0620
     32 H          10.6603   -0.8700    0.0000 H       1  UNL1        0.0620
     33 H          14.9904    0.8700    0.0000 H       1  UNL1        0.0620
     34 H           8.9282   -0.8700    0.0000 H       1  UNL1        0.0620
     35 H          12.3923   -0.8700    0.0000 H       1  UNL1        0.0618
     36 H          11.5263    0.8700    0.0000 H       1  UNL1        0.0618
     37 H          13.5044   -1.2500    0.0000 H       1  UNL1        0.0278
     38 H          14.1244   -1.8700    0.0000 H       1  UNL1        0.0278
     39 H          14.7444   -1.2500    0.0000 H       1  UNL1        0.0278
     40 H          10.4142    1.2500    0.0000 H       1  UNL1        0.0278
     41 H           9.7942    1.8700    0.0000 H       1  UNL1        0.0278
     42 H           9.1742    1.2500    0.0000 H       1  UNL1        0.0278
     43 H          15.8564   -0.8700    0.0000 H       1  UNL1        0.0618
     44 H           8.0622    0.8700    0.0000 H       1  UNL1        0.0618
     45 H          16.7224    0.8700    0.0000 H       1  UNL1        0.0620
     46 H           7.1962   -0.8700    0.0000 H       1  UNL1        0.0620
     47 H          16.9685   -1.2500    0.0000 H       1  UNL1        0.0278
     48 H          17.5885   -1.8700    0.0000 H       1  UNL1        0.0278
     49 H          18.2085   -1.2500    0.0000 H       1  UNL1        0.0278
     50 H           6.9501    1.2500    0.0000 H       1  UNL1        0.0278
     51 H           6.3301    1.8700    0.0000 H       1  UNL1        0.0278
     52 H           5.7101    1.2500    0.0000 H       1  UNL1        0.0278
     53 H          18.4545    0.8700    0.0000 H       1  UNL1        0.0622
     54 H           5.4641   -0.8700    0.0000 H       1  UNL1        0.0622
     55 H          19.3205   -0.8700    0.0000 H       1  UNL1        0.0689
     56 H           4.5981    0.8700    0.0000 H       1  UNL1        0.0689
     57 H          22.2286   -0.2869    0.0000 H       1  UNL1        0.0661
     58 H          22.4555    0.5600    0.0000 H       1  UNL1        0.0661
     59 H          21.6086    0.7869    0.0000 H       1  UNL1        0.0661
     60 H           1.6900    0.2869    0.0000 H       1  UNL1        0.0661
     61 H           1.4631   -0.5600    0.0000 H       1  UNL1        0.0661
     62 H           2.3100   -0.7869    0.0000 H       1  UNL1        0.0661
@<TRIPOS>BOND
     1     1    27    1
     2     1    29    1
     3     2    28    1
     4     2    30    1
     5     3    27    2
     6     4    28    2
     7     5     7    2
     8     5     9    1
     9     5    15    1
    10     6     8    2
    11     6    10    1
    12     6    16    1
    13     7    13    1
    14     7    31    1
    15     8    14    1
    16     8    32    1
    17     9    17    2
    18     9    33    1
    19    10    18    2
    20    10    34    1
    21    11    19    2
    22    11    21    1
    23    11    23    1
    24    12    20    2
    25    12    22    1
    26    12    24    1
    27    13    14    2
    28    13    35    1
    29    14    36    1
    30    15    37    1
    31    15    38    1
    32    15    39    1
    33    16    40    1
    34    16    41    1
    35    16    42    1
    36    17    19    1
    37    17    43    1
    38    18    20    1
    39    18    44    1
    40    19    45    1
    41    20    46    1
    42    21    47    1
    43    21    48    1
    44    21    49    1
    45    22    50    1
    46    22    51    1
    47    22    52    1
    48    23    25    2
    49    23    53    1
    50    24    26    2
    51    24    54    1
    52    25    27    1
    53    25    55    1
    54    26    28    1
    55    26    56    1
    56    29    57    1
    57    29    58    1
    58    29    59    1
    59    30    60    1
    60    30    61    1
    61    30    62    1
