@<TRIPOS>MOLECULE
IMPHY006028
 44 44 0 0 0
SMALL
GASTEIGER

@<TRIPOS>ATOM
      1 O           4.0000   -0.0600    0.0000 O.3     1  UNL1       -0.3845
      2 O           3.0000    2.9400    0.0000 O.3     1  UNL1       -0.3849
      3 O           5.5981    3.4400    0.0000 O.3     1  UNL1       -0.3862
      4 C           3.0000   -1.0600    0.0000 C.3     1  UNL1       -0.0051
      5 C           3.0000   -0.0600    0.0000 C.3     1  UNL1        0.0845
      6 C           2.1340   -1.5600    0.0000 C.3     1  UNL1       -0.0433
      7 C           3.8660   -1.5600    0.0000 C.3     1  UNL1       -0.0288
      8 C           2.1340   -2.5600    0.0000 C.3     1  UNL1       -0.0316
      9 C           3.0000   -3.0600    0.0000 C.2     1  UNL1       -0.0765
     10 C           3.8660   -2.5600    0.0000 C.2     1  UNL1       -0.0847
     11 C           3.0000    0.9400    0.0000 C.2     1  UNL1       -0.0543
     12 C           2.0000   -0.0600    0.0000 C.3     1  UNL1       -0.0322
     13 C           3.8660    1.4400    0.0000 C.2     1  UNL1       -0.0544
     14 C           3.8660    2.4400    0.0000 C.3     1  UNL1        0.1015
     15 C           4.7320    2.9400    0.0000 C.3     1  UNL1        0.0898
     16 C           3.0000   -4.0600    0.0000 C.3     1  UNL1       -0.0438
     17 C           4.2320    3.8060    0.0000 C.3     1  UNL1       -0.0336
     18 C           5.2320    2.0740    0.0000 C.3     1  UNL1       -0.0336
     19 H           3.7361   -0.6350    0.0000 H       1  UNL1        0.0335
     20 H           1.9219   -0.9774    0.0000 H       1  UNL1        0.0272
     21 H           1.5234   -1.6677    0.0000 H       1  UNL1        0.0272
     22 H           4.4766   -1.6677    0.0000 H       1  UNL1        0.0311
     23 H           4.0781   -0.9774    0.0000 H       1  UNL1        0.0311
     24 H           1.5234   -2.4523    0.0000 H       1  UNL1        0.0310
     25 H           1.9219   -3.1426    0.0000 H       1  UNL1        0.0310
     26 H           4.4030   -2.8700    0.0000 H       1  UNL1        0.0572
     27 H           2.4631    1.2500    0.0000 H       1  UNL1        0.0598
     28 H           2.0000    0.5600    0.0000 H       1  UNL1        0.0260
     29 H           1.3800   -0.0600    0.0000 H       1  UNL1        0.0260
     30 H           2.0000   -0.6800    0.0000 H       1  UNL1        0.0260
     31 H           3.8660    3.0600    0.0000 H       1  UNL1        0.0666
     32 H           4.4030    1.1300    0.0000 H       1  UNL1        0.0596
     33 H           4.3100    0.4769    0.0000 H       1  UNL1        0.2106
     34 H           2.3800   -4.0600    0.0000 H       1  UNL1        0.0274
     35 H           3.0000   -4.6800    0.0000 H       1  UNL1        0.0274
     36 H           3.6200   -4.0600    0.0000 H       1  UNL1        0.0274
     37 H           4.7690    4.1160    0.0000 H       1  UNL1        0.0258
     38 H           3.9220    4.3430    0.0000 H       1  UNL1        0.0258
     39 H           3.6951    3.4960    0.0000 H       1  UNL1        0.0258
     40 H           4.6951    1.7640    0.0000 H       1  UNL1        0.0258
     41 H           5.5420    1.5370    0.0000 H       1  UNL1        0.0258
     42 H           5.7690    2.3840    0.0000 H       1  UNL1        0.0258
     43 H           3.0000    3.5600    0.0000 H       1  UNL1        0.2103
     44 H           5.5981    4.0600    0.0000 H       1  UNL1        0.2103
@<TRIPOS>BOND
     1     5     1    1
     2     1    33    1
     3    14     2    1
     4     2    43    1
     5     3    15    1
     6     3    44    1
     7     4     5    1
     8     4     6    1
     9     4     7    1
    10     4    19    1
    11     5    11    1
    12     5    12    1
    13     6     8    1
    14     6    20    1
    15     6    21    1
    16     7    10    1
    17     7    22    1
    18     7    23    1
    19     8     9    1
    20     8    24    1
    21     8    25    1
    22     9    10    2
    23     9    16    1
    24    10    26    1
    25    11    13    2
    26    11    27    1
    27    12    28    1
    28    12    29    1
    29    12    30    1
    30    13    14    1
    31    13    32    1
    32    14    15    1
    33    14    31    1
    34    15    17    1
    35    15    18    1
    36    16    34    1
    37    16    35    1
    38    16    36    1
    39    17    37    1
    40    17    38    1
    41    17    39    1
    42    18    40    1
    43    18    41    1
    44    18    42    1
