@<TRIPOS>MOLECULE
IMPHY012521
 19 18 0 0 0
SMALL
GASTEIGER

@<TRIPOS>ATOM
      1 O           3.4030   -1.4400    0.0000 O.3     1  UNL1       -0.3024
      2 O           6.0010    1.0600    0.0000 O.3     1  UNL1       -0.4795
      3 OXT         5.1350    2.5600    0.0000 O.2     1  UNL1       -0.2493
      4 N           3.4030    1.5600    0.0000 N.3     1  UNL1       -0.3183
      5 N           2.5369   -1.9400    0.0000 N.3     1  UNL1       -0.2147
      6 C           4.2690    0.0600    0.0000 C.3     1  UNL1       -0.0019
      7 CA          4.2690    1.0600    0.0000 C.3     1  UNL1        0.1054
      8 C           3.4030   -0.4400    0.0000 C.3     1  UNL1        0.0708
      9 C           5.1350    1.5600    0.0000 C.2     1  UNL1        0.3218
     10 H           4.4810   -0.5226    0.0000 H       1  UNL1        0.0308
     11 H           4.8796    0.1677    0.0000 H       1  UNL1        0.0308
     12 HA          4.2690    1.6800    0.0000 H       1  UNL1        0.0575
     13 H           3.1909    0.1426    0.0000 H       1  UNL1        0.0580
     14 H           2.7924   -0.5477    0.0000 H       1  UNL1        0.0580
     15 H1          2.8660    1.2500    0.0000 H       1  UNL1        0.1190
     16 H2          3.4030    2.1800    0.0000 H       1  UNL1        0.1190
     17 H           6.5380    1.3700    0.0000 H       1  UNL1        0.2951
     18 H           2.5369   -2.5600    0.0000 H       1  UNL1        0.1500
     19 H           2.0000   -1.6300    0.0000 H       1  UNL1        0.1500
@<TRIPOS>BOND
     1     1     5    1
     2     1     8    1
     3     2     9    1
     4     2    17    1
     5     3     9    2
     6     7     4    1
     7     4    15    1
     8     4    16    1
     9     5    18    1
    10     5    19    1
    11     6     7    1
    12     6     8    1
    13     6    10    1
    14     6    11    1
    15     7     9    1
    16     7    12    1
    17     8    13    1
    18     8    14    1
