@<TRIPOS>MOLECULE
IMPHY008137
 51 54 0 0 0
SMALL
GASTEIGER

@<TRIPOS>ATOM
      1 O           2.8718    0.4533    0.0000 O.2     1  UNL1       -0.4937
      2 O           2.8560   -1.5949    0.0000 O.2     1  UNL1       -0.4888
      3 O           7.2564   -1.0844    0.0000 O.3     1  UNL1       -0.4912
      4 O           4.6298   -2.6190    0.0000 O.2     1  UNL1       -0.2887
      5 O           9.0381   -0.0739    0.0000 O.3     1  UNL1       -0.5033
      6 N           4.7348    1.9451    0.0000 N.3     1  UNL1       -0.2924
      7 C           5.5080   -0.0498    0.0000 C.3     1  UNL1        0.0333
      8 C           4.6419    0.4502    0.0000 C.3     1  UNL1        0.0935
      9 C           6.7562    0.7781    0.0000 C.3     1  UNL1       -0.0278
     10 C           4.6419    1.4502    0.0000 C.3     1  UNL1       -0.0224
     11 C           6.2149    2.1747    0.0000 C.3     1  UNL1        0.0004
     12 C           5.5240   -1.0913    0.0000 C.3     1  UNL1        0.0256
     13 C           6.3740    0.4502    0.0000 C.ar    1  UNL1        0.0099
     14 C           3.7319   -0.0566    0.0000 C.2     1  UNL1        0.1631
     15 C           5.5080    1.9502    0.0000 C.3     1  UNL1       -0.0252
     16 C           6.3740    1.4502    0.0000 C.ar    1  UNL1       -0.0398
     17 C           4.6260   -1.6191    0.0000 C.2     1  UNL1        0.2016
     18 C           3.7239   -1.0982    0.0000 C.2     1  UNL1        0.2019
     19 C           3.9960    2.6190    0.0000 C.3     1  UNL1       -0.0118
     20 C           7.2679   -0.0844    0.0000 C.ar    1  UNL1        0.1653
     21 C           7.2679    1.9849    0.0000 C.ar    1  UNL1       -0.0546
     22 C           8.1740    0.4294    0.0000 C.ar    1  UNL1        0.1587
     23 C           8.1740    1.4710    0.0000 C.ar    1  UNL1       -0.0162
     24 C           2.0000   -0.0366    0.0000 C.3     1  UNL1        0.0786
     25 C           2.8521   -2.5949    0.0000 C.3     1  UNL1        0.0791
     26 C           8.1166   -1.5944    0.0000 C.3     1  UNL1        0.0790
     27 H           7.0608    0.2381    0.0000 H       1  UNL1        0.0287
     28 H           7.3167    1.0431    0.0000 H       1  UNL1        0.0287
     29 H           4.4299    2.0328    0.0000 H       1  UNL1        0.0291
     30 H           4.0314    1.3426    0.0000 H       1  UNL1        0.0291
     31 H           6.8076    2.3566    0.0000 H       1  UNL1        0.0427
     32 H           6.0761    2.7789    0.0000 H       1  UNL1        0.0427
     33 H           5.7420   -1.6717    0.0000 H       1  UNL1        0.0356
     34 H           6.1332   -0.9758    0.0000 H       1  UNL1        0.0356
     35 H           5.9065    2.4252    0.0000 H       1  UNL1        0.0314
     36 H           5.1094    2.4252    0.0000 H       1  UNL1        0.0314
     37 H           4.4138    3.0771    0.0000 H       1  UNL1        0.0391
     38 H           3.5379    3.0369    0.0000 H       1  UNL1        0.0391
     39 H           3.5782    2.1610    0.0000 H       1  UNL1        0.0391
     40 H           7.2608    2.6048    0.0000 H       1  UNL1        0.0622
     41 H           8.7097    1.7831    0.0000 H       1  UNL1        0.0655
     42 H           1.6962    0.5039    0.0000 H       1  UNL1        0.0660
     43 H           1.4595   -0.3404    0.0000 H       1  UNL1        0.0660
     44 H           2.3038   -0.5771    0.0000 H       1  UNL1        0.0660
     45 H           2.2321   -2.5925    0.0000 H       1  UNL1        0.0660
     46 H           2.8497   -3.2149    0.0000 H       1  UNL1        0.0660
     47 H           3.4721   -2.5973    0.0000 H       1  UNL1        0.0660
     48 H           9.5762    0.2340    0.0000 H       1  UNL1        0.2923
     49 H           7.8004   -2.1277    0.0000 H       1  UNL1        0.0660
     50 H           8.6499   -1.9106    0.0000 H       1  UNL1        0.0660
     51 H           8.4327   -1.0610    0.0000 H       1  UNL1        0.0660
@<TRIPOS>BOND
     1     1    14    1
     2     1    24    1
     3     2    18    1
     4     2    25    1
     5     3    20    1
     6     3    26    1
     7     4    17    2
     8     5    22    1
     9     5    48    1
    10     6     8    1
    11     6    11    1
    12     6    19    1
    13     7     8    1
    14     7     9    1
    15     7    12    1
    16     7    13    1
    17     8    10    1
    18     8    14    1
    19     9    11    1
    20     9    27    1
    21     9    28    1
    22    10    15    1
    23    10    29    1
    24    10    30    1
    25    11    31    1
    26    11    32    1
    27    12    17    1
    28    12    33    1
    29    12    34    1
    30    13    16   ar
    31    13    20   ar
    32    14    18    2
    33    15    16    1
    34    15    35    1
    35    15    36    1
    36    16    21   ar
    37    17    18    1
    38    19    37    1
    39    19    38    1
    40    19    39    1
    41    20    22   ar
    42    21    23   ar
    43    21    40    1
    44    22    23   ar
    45    23    41    1
    46    24    42    1
    47    24    43    1
    48    24    44    1
    49    25    45    1
    50    25    46    1
    51    25    47    1
    52    26    49    1
    53    26    50    1
    54    26    51    1
