@<TRIPOS>MOLECULE
IMPHY011507
 49 51 0 0 0
SMALL
GASTEIGER

@<TRIPOS>ATOM
      1 O           2.0000    0.5372    0.0000 O.3     1  UNL1       -0.4914
      2 O           2.0000    2.5372    0.0000 O.3     1  UNL1       -0.4914
      3 O           8.9212   -2.5373    0.0000 O.3     1  UNL1       -0.4951
      4 N           6.3981    1.0164    0.0000 N.3     1  UNL1       -0.2978
      5 C           5.4920    0.5026    0.0000 C.3     1  UNL1        0.0397
      6 C           4.5981    1.0372    0.0000 C.ar    1  UNL1       -0.0231
      7 C           6.3981    2.0580    0.0000 C.3     1  UNL1        0.0032
      8 C           5.4920    2.5719    0.0000 C.3     1  UNL1       -0.0144
      9 C           4.5981    2.0372    0.0000 C.ar    1  UNL1       -0.0378
     10 C           5.4804   -0.4974    0.0000 C.3     1  UNL1       -0.0079
     11 C           3.7320    0.5372    0.0000 C.ar    1  UNL1       -0.0114
     12 C           7.2622    0.5131    0.0000 C.3     1  UNL1       -0.0122
     13 C           3.7320    2.5372    0.0000 C.ar    1  UNL1       -0.0128
     14 C           6.3406   -1.0074    0.0000 C.ar    1  UNL1       -0.0453
     15 C           2.8660    1.0372    0.0000 C.ar    1  UNL1        0.1618
     16 C           2.8660    2.0372    0.0000 C.ar    1  UNL1        0.1618
     17 C           6.3291   -2.0073    0.0000 C.ar    1  UNL1       -0.0551
     18 C           7.2124   -0.5174    0.0000 C.ar    1  UNL1       -0.0551
     19 C           7.1893   -2.5173    0.0000 C.ar    1  UNL1       -0.0197
     20 C           8.0726   -1.0274    0.0000 C.ar    1  UNL1       -0.0197
     21 C           8.0610   -2.0273    0.0000 C.ar    1  UNL1        0.1201
     22 C           2.0000   -0.4628    0.0000 C.3     1  UNL1        0.0790
     23 C           2.0000    3.5372    0.0000 C.3     1  UNL1        0.0790
     24 C           8.9096   -3.5372    0.0000 C.3     1  UNL1        0.0788
     25 H           6.0259    0.1874    0.0000 H       1  UNL1        0.0515
     26 H           7.0089    1.9520    0.0000 H       1  UNL1        0.0430
     27 H           6.6071    2.6417    0.0000 H       1  UNL1        0.0430
     28 H           5.8856    3.0509    0.0000 H       1  UNL1        0.0326
     29 H           5.0874    3.0417    0.0000 H       1  UNL1        0.0326
     30 H           4.8712   -0.3827    0.0000 H       1  UNL1        0.0332
     31 H           5.2617   -1.0775    0.0000 H       1  UNL1        0.0332
     32 H           3.7320   -0.0828    0.0000 H       1  UNL1        0.0659
     33 H           6.9501   -0.0227    0.0000 H       1  UNL1        0.0391
     34 H           7.7979    0.2010    0.0000 H       1  UNL1        0.0391
     35 H           7.5742    1.0488    0.0000 H       1  UNL1        0.0391
     36 H           3.7320    3.1572    0.0000 H       1  UNL1        0.0658
     37 H           5.7886   -2.3110    0.0000 H       1  UNL1        0.0621
     38 H           7.2196    0.1026    0.0000 H       1  UNL1        0.0621
     39 H           7.1821   -3.1372    0.0000 H       1  UNL1        0.0654
     40 H           8.6131   -0.7236    0.0000 H       1  UNL1        0.0654
     41 H           1.3800   -0.4628    0.0000 H       1  UNL1        0.0660
     42 H           2.0000   -1.0828    0.0000 H       1  UNL1        0.0660
     43 H           2.6200   -0.4628    0.0000 H       1  UNL1        0.0660
     44 H           2.6200    3.5372    0.0000 H       1  UNL1        0.0660
     45 H           2.0000    4.1572    0.0000 H       1  UNL1        0.0660
     46 H           1.3800    3.5372    0.0000 H       1  UNL1        0.0660
     47 H           8.2897   -3.5301    0.0000 H       1  UNL1        0.0660
     48 H           8.9025   -4.1572    0.0000 H       1  UNL1        0.0660
     49 H           9.5296   -3.5444    0.0000 H       1  UNL1        0.0660
@<TRIPOS>BOND
     1     1    15    1
     2     1    22    1
     3     2    16    1
     4     2    23    1
     5     3    21    1
     6     3    24    1
     7     4     5    1
     8     4     7    1
     9     4    12    1
    10     5     6    1
    11     5    10    1
    12     5    25    1
    13     6     9   ar
    14     6    11   ar
    15     7     8    1
    16     7    26    1
    17     7    27    1
    18     8     9    1
    19     8    28    1
    20     8    29    1
    21     9    13   ar
    22    10    14    1
    23    10    30    1
    24    10    31    1
    25    11    15   ar
    26    11    32    1
    27    12    33    1
    28    12    34    1
    29    12    35    1
    30    13    16   ar
    31    13    36    1
    32    14    17   ar
    33    14    18   ar
    34    15    16   ar
    35    17    19   ar
    36    17    37    1
    37    18    20   ar
    38    18    38    1
    39    19    21   ar
    40    19    39    1
    41    20    21   ar
    42    20    40    1
    43    22    41    1
    44    22    42    1
    45    22    43    1
    46    23    44    1
    47    23    45    1
    48    23    46    1
    49    24    47    1
    50    24    48    1
    51    24    49    1
