@<TRIPOS>MOLECULE
IMPHY004884
 67 72 0 0 0
SMALL
GASTEIGER

@<TRIPOS>ATOM
      1 O           6.0623    1.1385    0.0000 O.3     1  UNL1       -0.3712
      2 O           8.9792    2.0918    0.0000 O.3     1  UNL1       -0.3712
      3 O           5.1350   -3.4451    0.0000 O.3     1  UNL1       -0.3313
      4 O           6.8671   -3.4451    0.0000 O.3     1  UNL1       -0.4572
      5 O           9.7667    5.8480    0.0000 O.3     1  UNL1       -0.4526
      6 O           5.1350   -2.4451    0.0000 O.3     1  UNL1       -0.4914
      7 O           8.3715    6.6504    0.0000 O.3     1  UNL1       -0.4526
      8 O           5.1350   -6.4451    0.0000 O.3     1  UNL1       -0.3864
      9 O           6.8671   -5.4451    0.0000 O.3     1  UNL1       -0.3829
     10 O           3.4030   -5.4451    0.0000 O.3     1  UNL1       -0.3865
     11 O           2.5369   -3.9451    0.0000 O.3     1  UNL1       -0.3924
     12 C           7.6718    1.1385    0.0000 C.3     1  UNL1        0.0205
     13 C           7.3611    2.0890    0.0000 C.3     1  UNL1        0.0205
     14 C           6.8671    0.5549    0.0000 C.3     1  UNL1        0.0891
     15 C           8.1691    2.6782    0.0000 C.3     1  UNL1        0.0891
     16 C           6.3671    2.0847    0.0000 C.3     1  UNL1        0.0544
     17 C           8.6718    1.1402    0.0000 C.3     1  UNL1        0.0544
     18 C           6.8671   -0.4451    0.0000 C.ar    1  UNL1       -0.0149
     19 C           8.1674    3.6782    0.0000 C.ar    1  UNL1       -0.0149
     20 C           6.0010   -0.9451    0.0000 C.ar    1  UNL1       -0.0107
     21 C           7.7331   -0.9451    0.0000 C.ar    1  UNL1       -0.0524
     22 C           9.0326    4.1797    0.0000 C.ar    1  UNL1       -0.0105
     23 C           7.3005    4.1767    0.0000 C.ar    1  UNL1       -0.0524
     24 C           6.0010   -1.9451    0.0000 C.ar    1  UNL1        0.1620
     25 C           6.0010   -4.9451    0.0000 C.3     1  UNL1        0.1454
     26 C           5.1350   -5.4451    0.0000 C.3     1  UNL1        0.1152
     27 C           6.0010   -3.9451    0.0000 C.3     1  UNL1        0.2310
     28 C           7.7331   -1.9451    0.0000 C.ar    1  UNL1       -0.0158
     29 C           4.2690   -4.9451    0.0000 C.3     1  UNL1        0.1120
     30 C           9.0308    5.1797    0.0000 C.ar    1  UNL1        0.1666
     31 C           6.8671   -2.4451    0.0000 C.ar    1  UNL1        0.1654
     32 C           4.2690   -3.9451    0.0000 C.3     1  UNL1        0.1140
     33 C           7.2988    5.1767    0.0000 C.ar    1  UNL1       -0.0158
     34 C           8.1639    5.6782    0.0000 C.ar    1  UNL1        0.1662
     35 C           3.4030   -3.4451    0.0000 C.3     1  UNL1        0.0731
     36 C           9.3600    6.7551    0.0000 C.3     1  UNL1        0.2332
     37 C           4.2690   -1.9451    0.0000 C.3     1  UNL1        0.0790
     38 H           7.9348    0.3302    0.0000 H       1  UNL1        0.0356
     39 H           7.0960    2.8966    0.0000 H       1  UNL1        0.0356
     40 H           6.3148    0.2732    0.0000 H       1  UNL1        0.0650
     41 H           8.7211    2.9606    0.0000 H       1  UNL1        0.0650
     42 H           6.4296    2.7016    0.0000 H       1  UNL1        0.0564
     43 H           5.7602    2.2117    0.0000 H       1  UNL1        0.0564
     44 H           8.6080    0.5235    0.0000 H       1  UNL1        0.0564
     45 H           9.2785    1.0124    0.0000 H       1  UNL1        0.0564
     46 H           5.4641   -0.6351    0.0000 H       1  UNL1        0.0659
     47 H           8.2700   -0.6351    0.0000 H       1  UNL1        0.0622
     48 H           9.5700    3.8706    0.0000 H       1  UNL1        0.0659
     49 H           6.7641    3.8658    0.0000 H       1  UNL1        0.0622
     50 H           6.0010   -5.5651    0.0000 H       1  UNL1        0.0683
     51 H           4.5981   -5.7551    0.0000 H       1  UNL1        0.0648
     52 H           6.0010   -3.3251    0.0000 H       1  UNL1        0.1084
     53 H           3.7320   -4.6351    0.0000 H       1  UNL1        0.0647
     54 H           8.2700   -2.2551    0.0000 H       1  UNL1        0.0655
     55 H           4.2690   -3.3251    0.0000 H       1  UNL1        0.0647
     56 H           6.7613    5.4858    0.0000 H       1  UNL1        0.0655
     57 H           3.8015   -2.9702    0.0000 H       1  UNL1        0.0584
     58 H           3.0044   -2.9702    0.0000 H       1  UNL1        0.0584
     59 H           5.6720   -6.7551    0.0000 H       1  UNL1        0.2100
     60 H           9.9493    6.9479    0.0000 H       1  UNL1        0.1166
     61 H           9.2302    7.3614    0.0000 H       1  UNL1        0.1166
     62 H           7.4040   -5.1351    0.0000 H       1  UNL1        0.2102
     63 H           3.4030   -6.0651    0.0000 H       1  UNL1        0.2100
     64 H           4.5790   -1.4082    0.0000 H       1  UNL1        0.0660
     65 H           3.7320   -1.6351    0.0000 H       1  UNL1        0.0660
     66 H           3.9590   -2.4821    0.0000 H       1  UNL1        0.0660
     67 H           2.0000   -3.6351    0.0000 H       1  UNL1        0.2095
@<TRIPOS>BOND
     1     1    14    1
     2     1    16    1
     3     2    15    1
     4     2    17    1
     5     3    27    1
     6     3    32    1
     7    27     4    1
     8     4    31    1
     9     5    30    1
    10     5    36    1
    11     6    24    1
    12     6    37    1
    13     7    34    1
    14     7    36    1
    15    26     8    1
    16     8    59    1
    17    25     9    1
    18     9    62    1
    19    29    10    1
    20    10    63    1
    21    11    35    1
    22    11    67    1
    23    12    13    1
    24    12    14    1
    25    12    17    1
    26    12    38    1
    27    13    15    1
    28    13    16    1
    29    13    39    1
    30    14    18    1
    31    14    40    1
    32    15    19    1
    33    15    41    1
    34    16    42    1
    35    16    43    1
    36    17    44    1
    37    17    45    1
    38    18    20   ar
    39    18    21   ar
    40    19    22   ar
    41    19    23   ar
    42    20    24   ar
    43    20    46    1
    44    21    28   ar
    45    21    47    1
    46    22    30   ar
    47    22    48    1
    48    23    33   ar
    49    23    49    1
    50    24    31   ar
    51    25    26    1
    52    25    27    1
    53    25    50    1
    54    26    29    1
    55    26    51    1
    56    27    52    1
    57    28    31   ar
    58    28    54    1
    59    29    32    1
    60    29    53    1
    61    30    34   ar
    62    32    35    1
    63    32    55    1
    64    33    34   ar
    65    33    56    1
    66    35    57    1
    67    35    58    1
    68    36    60    1
    69    36    61    1
    70    37    64    1
    71    37    65    1
    72    37    66    1
