@<TRIPOS>MOLECULE
IMPHY001293
 18 19 0 0 0
SMALL
GASTEIGER

@<TRIPOS>ATOM
      1 O           5.9674    1.5501    0.0000 O.2     1  UNL1       -0.2956
      2 N           4.6783   -1.2161    0.0000 N.ar    1  UNL1       -0.3600
      3 C           3.7320    0.0887    0.0000 C.ar    1  UNL1        0.0099
      4 C           3.7320   -0.9113    0.0000 C.ar    1  UNL1        0.0471
      5 C           4.6783    0.3934    0.0000 C.ar    1  UNL1        0.0392
      6 C           5.2619   -0.4113    0.0000 C.ar    1  UNL1        0.0130
      7 C           2.8660    0.5887    0.0000 C.ar    1  UNL1       -0.0519
      8 C           2.8660   -1.4113    0.0000 C.ar    1  UNL1       -0.0378
      9 C           2.0000    0.0887    0.0000 C.ar    1  UNL1       -0.0611
     10 C           2.0000   -0.9113    0.0000 C.ar    1  UNL1       -0.0598
     11 C           4.9889    1.3439    0.0000 C.2     1  UNL1        0.1522
     12 H           4.8709   -1.8054    0.0000 H       1  UNL1        0.1654
     13 H           5.8819   -0.4113    0.0000 H       1  UNL1        0.0814
     14 H           2.8660    1.2087    0.0000 H       1  UNL1        0.0624
     15 H           2.8660   -2.0313    0.0000 H       1  UNL1        0.0638
     16 H           1.4631    0.3987    0.0000 H       1  UNL1        0.0618
     17 H           1.4631   -1.2213    0.0000 H       1  UNL1        0.0618
     18 H           4.5749    1.8054    0.0000 H       1  UNL1        0.1082
@<TRIPOS>BOND
     1     1    11    2
     2     2     4   ar
     3     2     6   ar
     4     2    12    1
     5     3     4   ar
     6     3     5   ar
     7     3     7   ar
     8     4     8   ar
     9     5     6   ar
    10     5    11    1
    11     6    13    1
    12     7     9   ar
    13     7    14    1
    14     8    10   ar
    15     8    15    1
    16     9    10   ar
    17     9    16    1
    18    10    17    1
    19    11    18    1
