@<TRIPOS>MOLECULE
IMPHY014976
 26 27 0 0 0
SMALL
GASTEIGER

@<TRIPOS>ATOM
      1 C           4.8909   -0.2226    0.0000 C.3     1  UNL1       -0.0316
      2 C           3.4920   -0.7314    0.0000 C.3     1  UNL1       -0.0110
      3 C           4.6321    0.7433    0.0000 C.3     1  UNL1       -0.0193
      4 C           5.3687    1.7259    0.0000 C.3     1  UNL1       -0.0429
      5 C           6.2636   -0.8146    0.0000 C.3     1  UNL1       -0.0489
      6 C           6.6056    0.1251    0.0000 C.3     1  UNL1       -0.0462
      7 C           3.2332    0.2345    0.0000 C.2     1  UNL1       -0.0676
      8 C           2.5784   -1.1382    0.0000 C.3     1  UNL1       -0.0558
      9 C           3.5965   -1.7259    0.0000 C.3     1  UNL1       -0.0558
     10 C           2.3671    0.7345    0.0000 C.2     1  UNL1       -0.0987
     11 H           5.1109   -1.0436    0.0000 H       1  UNL1        0.0309
     12 H           4.4121    1.5644    0.0000 H       1  UNL1        0.0346
     13 H           5.0509    2.2583    0.0000 H       1  UNL1        0.0274
     14 H           5.9819    1.8179    0.0000 H       1  UNL1        0.0274
     15 H           6.8420   -1.0379    0.0000 H       1  UNL1        0.0268
     16 H           6.0292   -1.3886    0.0000 H       1  UNL1        0.0268
     17 H           6.7999    0.7138    0.0000 H       1  UNL1        0.0271
     18 H           7.1914   -0.0781    0.0000 H       1  UNL1        0.0271
     19 H           2.8306   -1.7046    0.0000 H       1  UNL1        0.0238
     20 H           2.0120   -1.3903    0.0000 H       1  UNL1        0.0238
     21 H           2.3263   -0.5718    0.0000 H       1  UNL1        0.0238
     22 H           4.2131   -1.6611    0.0000 H       1  UNL1        0.0238
     23 H           3.6613   -2.3425    0.0000 H       1  UNL1        0.0238
     24 H           2.9799   -1.7908    0.0000 H       1  UNL1        0.0238
     25 H           1.8302    0.4245    0.0000 H       1  UNL1        0.0535
     26 H           2.3671    1.3545    0.0000 H       1  UNL1        0.0535
@<TRIPOS>BOND
     1     1     2    1
     2     1     4    1
     3     1     5    1
     4     1    11    1
     5     2     7    1
     6     2     8    1
     7     2     9    1
     8     3     4    1
     9     3     6    1
    10     3     7    1
    11     3    12    1
    12     4    13    1
    13     4    14    1
    14     5     6    1
    15     5    15    1
    16     5    16    1
    17     6    17    1
    18     6    18    1
    19     7    10    2
    20     8    19    1
    21     8    20    1
    22     8    21    1
    23     9    22    1
    24     9    23    1
    25     9    24    1
    26    10    25    1
    27    10    26    1
