@<TRIPOS>MOLECULE
IMPHY010061
 197 207 0 0 0
SMALL
GASTEIGER

@<TRIPOS>ATOM
      1 O          17.8164    3.4959    0.0000 O.3     1  UNL1       -0.3450
      2 O          14.6906    1.4420    0.0000 O.2     1  UNL1       -0.2968
      3 O          16.2874    4.7279    0.0000 O.3     1  UNL1       -0.3642
      4 O          16.3933   -4.7482    0.0000 O.3     1  UNL1       -0.3454
      5 O          14.6613   -4.7482    0.0000 O.3     1  UNL1       -0.3405
      6 O          20.4510    6.5953    0.0000 O.3     1  UNL1       -0.3484
      7 O          16.3933   -6.7482    0.0000 O.3     1  UNL1       -0.3841
      8 O          14.6613   -7.7482    0.0000 O.3     1  UNL1       -0.3864
      9 O          12.9292   -6.7482    0.0000 O.3     1  UNL1       -0.3401
     10 O          12.9292   -3.7482    0.0000 O.3     1  UNL1       -0.3924
     11 O          21.9535    5.7337    0.0000 O.3     1  UNL1       -0.3405
     12 O          12.0632   -5.2482    0.0000 O.3     1  UNL1       -0.3405
     13 O          21.4458    8.3303    0.0000 O.3     1  UNL1       -0.3841
     14 O          23.4458    8.3363    0.0000 O.3     1  UNL1       -0.3864
     15 O          11.1972   -7.7482    0.0000 O.3     1  UNL1       -0.3841
     16 O          24.4509    6.6072    0.0000 O.3     1  UNL1       -0.3865
     17 O           9.4651   -6.7482    0.0000 O.3     1  UNL1       -0.3864
     18 O           9.4651   -4.7482    0.0000 O.3     1  UNL1       -0.3401
     19 O          24.4561    4.8752    0.0000 O.3     1  UNL1       -0.3924
     20 O          10.3312   -3.2482    0.0000 O.3     1  UNL1       -0.3924
     21 O           8.5991   -6.2482    0.0000 O.3     1  UNL1       -0.3405
     22 O           7.7331   -3.7482    0.0000 O.3     1  UNL1       -0.3378
     23 O           6.0010   -4.7482    0.0000 O.3     1  UNL1       -0.3401
     24 O           6.0010   -6.7482    0.0000 O.3     1  UNL1       -0.3865
     25 O           6.4063   -2.6347    0.0000 O.3     1  UNL1       -0.3431
     26 O           8.5991   -8.2482    0.0000 O.3     1  UNL1       -0.3924
     27 O           5.1350   -6.2482    0.0000 O.3     1  UNL1       -0.3461
     28 O           9.0187   -2.2161    0.0000 O.3     1  UNL1       -0.3841
     29 O           8.3346   -0.3367    0.0000 O.3     1  UNL1       -0.3864
     30 O           4.2690   -3.7482    0.0000 O.3     1  UNL1       -0.3841
     31 O           6.3650    0.0106    0.0000 O.3     1  UNL1       -0.3866
     32 O           2.5369   -4.7482    0.0000 O.3     1  UNL1       -0.3864
     33 O           2.5369   -6.7482    0.0000 O.3     1  UNL1       -0.3869
     34 C          17.2905    0.9521    0.0000 C.3     1  UNL1       -0.0231
     35 C          16.4226    1.4487    0.0000 C.3     1  UNL1        0.0349
     36 C          17.2944   -0.0479    0.0000 C.3     1  UNL1       -0.0335
     37 C          16.6281    2.4213    0.0000 C.3     1  UNL1        0.0052
     38 C          16.4303   -0.5513    0.0000 C.3     1  UNL1       -0.0256
     39 C          16.4183   -1.5928    0.0000 C.3     1  UNL1       -0.0256
     40 C          17.6164    2.5282    0.0000 C.3     1  UNL1        0.0664
     41 C          18.0250    1.6220    0.0000 C.3     1  UNL1       -0.0222
     42 C          17.3183   -2.1171    0.0000 C.3     1  UNL1       -0.0330
     43 C          16.2258    3.3239    0.0000 C.3     1  UNL1        0.0162
     44 C          15.5624   -0.0546    0.0000 C.3     1  UNL1        0.0100
     45 C          18.2064   -0.5513    0.0000 C.3     1  UNL1       -0.0494
     46 C          15.5585    0.9454    0.0000 C.2     1  UNL1        0.1401
     47 C          18.2184   -1.5928    0.0000 C.3     1  UNL1       -0.0494
     48 C          16.9587    3.9867    0.0000 C.3     1  UNL1        0.1704
     49 C          15.4684   -2.1171    0.0000 C.3     1  UNL1       -0.0448
     50 C          15.5547    1.9454    0.0000 C.3     1  UNL1       -0.0522
     51 C          17.3309   -3.2020    0.0000 C.3     1  UNL1       -0.0232
     52 C          15.5542   -1.0895    0.0000 C.3     1  UNL1       -0.0590
     53 C          15.4558   -3.2020    0.0000 C.3     1  UNL1       -0.0260
     54 C          16.3933   -3.7482    0.0000 C.3     1  UNL1        0.0621
     55 C          15.2474    3.5306    0.0000 C.3     1  UNL1       -0.0572
     56 C          17.4561    4.8543    0.0000 C.3     1  UNL1        0.0018
     57 C          18.4561    4.8572    0.0000 C.3     1  UNL1       -0.0435
     58 C          18.9535    5.7248    0.0000 C.3     1  UNL1       -0.0201
     59 C          15.5273   -5.2482    0.0000 C.3     1  UNL1        0.1882
     60 C          15.5273   -6.2482    0.0000 C.3     1  UNL1        0.1341
     61 C          19.9535    5.7277    0.0000 C.3     1  UNL1        0.0533
     62 C          18.4510    6.5893    0.0000 C.3     1  UNL1       -0.0603
     63 C          14.6613   -6.7482    0.0000 C.3     1  UNL1        0.1144
     64 C          13.7953   -5.2482    0.0000 C.3     1  UNL1        0.1134
     65 C          13.7953   -6.2482    0.0000 C.3     1  UNL1        0.1184
     66 C          12.9292   -4.7482    0.0000 C.3     1  UNL1        0.0730
     67 C          21.4509    6.5982    0.0000 C.3     1  UNL1        0.1879
     68 C          12.0632   -6.2482    0.0000 C.3     1  UNL1        0.1884
     69 C          21.9484    7.4658    0.0000 C.3     1  UNL1        0.1341
     70 C          22.9484    7.4688    0.0000 C.3     1  UNL1        0.1141
     71 C          11.1972   -6.7482    0.0000 C.3     1  UNL1        0.1341
     72 C          22.9535    5.7367    0.0000 C.3     1  UNL1        0.1130
     73 C          23.4509    6.6042    0.0000 C.3     1  UNL1        0.1119
     74 C          10.3312   -6.2482    0.0000 C.3     1  UNL1        0.1144
     75 C          11.1972   -4.7482    0.0000 C.3     1  UNL1        0.1134
     76 C          10.3312   -5.2482    0.0000 C.3     1  UNL1        0.1184
     77 C          23.4561    4.8722    0.0000 C.3     1  UNL1        0.0730
     78 C          11.1972   -3.7482    0.0000 C.3     1  UNL1        0.0730
     79 C           8.5991   -5.2482    0.0000 C.3     1  UNL1        0.1888
     80 C           7.7331   -4.7482    0.0000 C.3     1  UNL1        0.1410
     81 C           6.8671   -5.2482    0.0000 C.3     1  UNL1        0.1209
     82 C           7.7331   -6.7482    0.0000 C.3     1  UNL1        0.1130
     83 C           6.8671   -6.2482    0.0000 C.3     1  UNL1        0.1123
     84 C           7.7331   -7.7482    0.0000 C.3     1  UNL1        0.0730
     85 C           7.3911   -2.8085    0.0000 C.3     1  UNL1        0.1884
     86 C           5.1350   -5.2482    0.0000 C.3     1  UNL1        0.1880
     87 C           8.0339   -2.0424    0.0000 C.3     1  UNL1        0.1341
     88 C           7.6918   -1.1027    0.0000 C.3     1  UNL1        0.1140
     89 C           4.2690   -4.7482    0.0000 C.3     1  UNL1        0.1341
     90 C           6.0642   -1.6951    0.0000 C.3     1  UNL1        0.0873
     91 C           6.7070   -0.9291    0.0000 C.3     1  UNL1        0.1095
     92 C           3.4030   -5.2482    0.0000 C.3     1  UNL1        0.1137
     93 C           3.4030   -6.2482    0.0000 C.3     1  UNL1        0.1069
     94 C           4.2690   -6.7482    0.0000 C.3     1  UNL1        0.0792
     95 C           5.0795   -1.5214    0.0000 C.3     1  UNL1       -0.0361
     96 H          17.8582    0.7028    0.0000 H       1  UNL1        0.0314
     97 H          17.8277    0.2683    0.0000 H       1  UNL1        0.0307
     98 H          16.0115    2.3560    0.0000 H       1  UNL1        0.0339
     99 H          16.9660   -0.8633    0.0000 H       1  UNL1        0.0313
    100 H          18.2326    2.5962    0.0000 H       1  UNL1        0.0600
    101 H          18.3924    1.1225    0.0000 H       1  UNL1        0.0293
    102 H          18.5603    1.9348    0.0000 H       1  UNL1        0.0293
    103 H          17.8576   -2.4230    0.0000 H       1  UNL1        0.0307
    104 H          16.0643    3.9225    0.0000 H       1  UNL1        0.0354
    105 H          14.9514    0.0507    0.0000 H       1  UNL1        0.0345
    106 H          15.3526   -0.6380    0.0000 H       1  UNL1        0.0345
    107 H          18.8184   -0.6503    0.0000 H       1  UNL1        0.0268
    108 H          18.4086    0.0348    0.0000 H       1  UNL1        0.0268
    109 H          18.4342   -2.1741    0.0000 H       1  UNL1        0.0268
    110 H          18.8280   -1.4797    0.0000 H       1  UNL1        0.0268
    111 H          15.2661   -1.5310    0.0000 H       1  UNL1        0.0271
    112 H          14.8563   -2.2161    0.0000 H       1  UNL1        0.0271
    113 H          15.8626    2.4835    0.0000 H       1  UNL1        0.0239
    114 H          15.0165    2.2533    0.0000 H       1  UNL1        0.0239
    115 H          15.2467    1.4072    0.0000 H       1  UNL1        0.0239
    116 H          17.5467   -3.7833    0.0000 H       1  UNL1        0.0293
    117 H          17.9405   -3.0889    0.0000 H       1  UNL1        0.0293
    118 H          15.8662   -0.5538    0.0000 H       1  UNL1        0.0235
    119 H          15.0184   -0.7774    0.0000 H       1  UNL1        0.0235
    120 H          15.2421   -1.6252    0.0000 H       1  UNL1        0.0235
    121 H          14.8462   -3.0889    0.0000 H       1  UNL1        0.0290
    122 H          15.2400   -3.7833    0.0000 H       1  UNL1        0.0290
    123 H          16.9309   -4.0571    0.0000 H       1  UNL1        0.0597
    124 H          15.3755    4.1372    0.0000 H       1  UNL1        0.0234
    125 H          14.6407    3.6588    0.0000 H       1  UNL1        0.0234
    126 H          15.1192    2.9240    0.0000 H       1  UNL1        0.0234
    127 H          17.5620    5.4652    0.0000 H       1  UNL1        0.0317
    128 H          16.8729    5.0646    0.0000 H       1  UNL1        0.0317
    129 H          16.4772    5.3181    0.0000 H       1  UNL1        0.2128
    130 H          18.3503    4.2463    0.0000 H       1  UNL1        0.0270
    131 H          19.0394    4.6469    0.0000 H       1  UNL1        0.0270
    132 H          18.3335    5.7229    0.0000 H       1  UNL1        0.0320
    133 H          15.5273   -4.6282    0.0000 H       1  UNL1        0.0937
    134 H          15.5273   -6.8682    0.0000 H       1  UNL1        0.0671
    135 H          19.8477    5.1168    0.0000 H       1  UNL1        0.0563
    136 H          20.5368    5.5174    0.0000 H       1  UNL1        0.0563
    137 H          18.9870    6.9009    0.0000 H       1  UNL1        0.0233
    138 H          18.1394    7.1253    0.0000 H       1  UNL1        0.0233
    139 H          17.9150    6.2777    0.0000 H       1  UNL1        0.0233
    140 H          14.1244   -7.0582    0.0000 H       1  UNL1        0.0648
    141 H          13.7953   -4.6282    0.0000 H       1  UNL1        0.0647
    142 H          13.2583   -5.9382    0.0000 H       1  UNL1        0.0651
    143 H          16.9303   -6.4382    0.0000 H       1  UNL1        0.2101
    144 H          12.3187   -4.6405    0.0000 H       1  UNL1        0.0584
    145 H          12.7172   -5.3308    0.0000 H       1  UNL1        0.0584
    146 H          15.1982   -8.0582    0.0000 H       1  UNL1        0.2100
    147 H          21.1393    7.1342    0.0000 H       1  UNL1        0.0937
    148 H          12.0632   -6.8682    0.0000 H       1  UNL1        0.0938
    149 H          22.2568    8.0036    0.0000 H       1  UNL1        0.0671
    150 H          12.3923   -3.4382    0.0000 H       1  UNL1        0.2095
    151 H          23.5683    7.4706    0.0000 H       1  UNL1        0.0648
    152 H          10.6603   -7.0582    0.0000 H       1  UNL1        0.0671
    153 H          22.6451    5.1988    0.0000 H       1  UNL1        0.0647
    154 H          23.7625    6.0682    0.0000 H       1  UNL1        0.0647
    155 H           9.7942   -5.9382    0.0000 H       1  UNL1        0.0648
    156 H          11.7341   -4.4382    0.0000 H       1  UNL1        0.0647
    157 H          21.7542    8.8682    0.0000 H       1  UNL1        0.2101
    158 H          10.3312   -4.6282    0.0000 H       1  UNL1        0.0651
    159 H          22.8741    4.6584    0.0000 H       1  UNL1        0.0584
    160 H          23.5656    4.2619    0.0000 H       1  UNL1        0.0584
    161 H          24.0658    8.3381    0.0000 H       1  UNL1        0.2100
    162 H          11.7341   -8.0582    0.0000 H       1  UNL1        0.2101
    163 H          24.7593    7.1451    0.0000 H       1  UNL1        0.2100
    164 H          11.8078   -3.8558    0.0000 H       1  UNL1        0.0584
    165 H          11.4092   -3.1655    0.0000 H       1  UNL1        0.0584
    166 H           9.4651   -7.3682    0.0000 H       1  UNL1        0.2100
    167 H          24.7677    4.3392    0.0000 H       1  UNL1        0.2095
    168 H           8.5991   -4.6282    0.0000 H       1  UNL1        0.0938
    169 H          10.3312   -2.6282    0.0000 H       1  UNL1        0.2095
    170 H           7.1962   -4.4382    0.0000 H       1  UNL1        0.0675
    171 H           6.3301   -5.5582    0.0000 H       1  UNL1        0.0651
    172 H           8.2700   -7.0582    0.0000 H       1  UNL1        0.0647
    173 H           7.4040   -5.9382    0.0000 H       1  UNL1        0.0647
    174 H           7.1225   -7.6405    0.0000 H       1  UNL1        0.0584
    175 H           7.5210   -8.3308    0.0000 H       1  UNL1        0.0584
    176 H           6.9925   -3.2834    0.0000 H       1  UNL1        0.0938
    177 H           6.0010   -7.3682    0.0000 H       1  UNL1        0.2100
    178 H           5.1350   -4.6282    0.0000 H       1  UNL1        0.0937
    179 H           8.2459   -2.6250    0.0000 H       1  UNL1        0.0671
    180 H           7.4798   -0.5201    0.0000 H       1  UNL1        0.0648
    181 H           3.7320   -4.4382    0.0000 H       1  UNL1        0.0671
    182 H           5.6657   -2.1701    0.0000 H       1  UNL1        0.0621
    183 H           8.5991   -8.8682    0.0000 H       1  UNL1        0.2095
    184 H           6.0964   -0.8214    0.0000 H       1  UNL1        0.0646
    185 H           3.9399   -5.5582    0.0000 H       1  UNL1        0.0647
    186 H           3.4030   -6.8682    0.0000 H       1  UNL1        0.0643
    187 H           3.8705   -7.2231    0.0000 H       1  UNL1        0.0587
    188 H           4.6675   -7.2231    0.0000 H       1  UNL1        0.0587
    189 H           9.4172   -1.7411    0.0000 H       1  UNL1        0.2101
    190 H           5.1872   -0.9108    0.0000 H       1  UNL1        0.0255
    191 H           4.4689   -1.4137    0.0000 H       1  UNL1        0.0255
    192 H           4.9718   -2.1320    0.0000 H       1  UNL1        0.0255
    193 H           8.1226    0.2459    0.0000 H       1  UNL1        0.2100
    194 H           3.7320   -3.4382    0.0000 H       1  UNL1        0.2101
    195 H           5.7544    0.1183    0.0000 H       1  UNL1        0.2100
    196 H           2.0000   -5.0582    0.0000 H       1  UNL1        0.2100
    197 H           2.5369   -7.3682    0.0000 H       1  UNL1        0.2100
@<TRIPOS>BOND
     1     1    40    1
     2     1    48    1
     3     2    46    2
     4     3    48    1
     5     3   129    1
     6     4    54    1
     7     4    59    1
     8     5    59    1
     9     5    64    1
    10     6    61    1
    11     6    67    1
    12     7    60    1
    13     7   143    1
    14     8    63    1
    15     8   146    1
    16     9    65    1
    17     9    68    1
    18    10    66    1
    19    10   150    1
    20    11    67    1
    21    11    72    1
    22    12    68    1
    23    12    75    1
    24    13    69    1
    25    13   157    1
    26    14    70    1
    27    14   161    1
    28    15    71    1
    29    15   162    1
    30    16    73    1
    31    16   163    1
    32    17    74    1
    33    17   166    1
    34    18    76    1
    35    18    79    1
    36    19    77    1
    37    19   167    1
    38    20    78    1
    39    20   169    1
    40    21    79    1
    41    21    82    1
    42    22    80    1
    43    22    85    1
    44    23    81    1
    45    23    86    1
    46    24    83    1
    47    24   177    1
    48    25    85    1
    49    25    90    1
    50    26    84    1
    51    26   183    1
    52    27    86    1
    53    27    94    1
    54    28    87    1
    55    28   189    1
    56    29    88    1
    57    29   193    1
    58    30    89    1
    59    30   194    1
    60    31    91    1
    61    31   195    1
    62    32    92    1
    63    32   196    1
    64    33    93    1
    65    33   197    1
    66    34    35    1
    67    34    36    1
    68    34    41    1
    69    34    96    1
    70    35    37    1
    71    35    46    1
    72    35    50    1
    73    36    38    1
    74    36    45    1
    75    36    97    1
    76    37    40    1
    77    37    43    1
    78    37    98    1
    79    38    39    1
    80    38    44    1
    81    38    99    1
    82    39    42    1
    83    39    49    1
    84    39    52    1
    85    40    41    1
    86    40   100    1
    87    41   101    1
    88    41   102    1
    89    42    47    1
    90    42    51    1
    91    42   103    1
    92    43    48    1
    93    43    55    1
    94    43   104    1
    95    44    46    1
    96    44   105    1
    97    44   106    1
    98    45    47    1
    99    45   107    1
   100    45   108    1
   101    47   109    1
   102    47   110    1
   103    48    56    1
   104    49    53    1
   105    49   111    1
   106    49   112    1
   107    50   113    1
   108    50   114    1
   109    50   115    1
   110    51    54    1
   111    51   116    1
   112    51   117    1
   113    52   118    1
   114    52   119    1
   115    52   120    1
   116    53    54    1
   117    53   121    1
   118    53   122    1
   119    54   123    1
   120    55   124    1
   121    55   125    1
   122    55   126    1
   123    56    57    1
   124    56   127    1
   125    56   128    1
   126    57    58    1
   127    57   130    1
   128    57   131    1
   129    58    61    1
   130    58    62    1
   131    58   132    1
   132    59    60    1
   133    59   133    1
   134    60    63    1
   135    60   134    1
   136    61   135    1
   137    61   136    1
   138    62   137    1
   139    62   138    1
   140    62   139    1
   141    63    65    1
   142    63   140    1
   143    64    65    1
   144    64    66    1
   145    64   141    1
   146    65   142    1
   147    66   144    1
   148    66   145    1
   149    67    69    1
   150    67   147    1
   151    68    71    1
   152    68   148    1
   153    69    70    1
   154    69   149    1
   155    70    73    1
   156    70   151    1
   157    71    74    1
   158    71   152    1
   159    72    73    1
   160    72    77    1
   161    72   153    1
   162    73   154    1
   163    74    76    1
   164    74   155    1
   165    75    76    1
   166    75    78    1
   167    75   156    1
   168    76   158    1
   169    77   159    1
   170    77   160    1
   171    78   164    1
   172    78   165    1
   173    79    80    1
   174    79   168    1
   175    80    81    1
   176    80   170    1
   177    81    83    1
   178    81   171    1
   179    82    83    1
   180    82    84    1
   181    82   172    1
   182    83   173    1
   183    84   174    1
   184    84   175    1
   185    85    87    1
   186    85   176    1
   187    86    89    1
   188    86   178    1
   189    87    88    1
   190    87   179    1
   191    88    91    1
   192    88   180    1
   193    89    92    1
   194    89   181    1
   195    90    91    1
   196    90    95    1
   197    90   182    1
   198    91   184    1
   199    92    93    1
   200    92   185    1
   201    93    94    1
   202    93   186    1
   203    94   187    1
   204    94   188    1
   205    95   190    1
   206    95   191    1
   207    95   192    1
