@<TRIPOS>MOLECULE
IMPHY000674
 59 62 0 0 0
SMALL
GASTEIGER

@<TRIPOS>ATOM
      1 O           7.2342    0.4818    0.0000 O.2     1  UNL1       -0.4535
      2 O           4.5841   -1.0666    0.0000 O.3     1  UNL1       -0.4791
      3 O           4.6361    1.9818    0.0000 O.2     1  UNL1       -0.2865
      4 O           9.0201    3.5270    0.0000 O.3     1  UNL1       -0.4946
      5 O           5.4803    3.5133    0.0000 O.3     1  UNL1       -0.5058
      6 O           8.2246   -3.1551    0.0000 O.3     1  UNL1       -0.5033
      7 O           6.4213   -4.2149    0.0000 O.3     1  UNL1       -0.5032
      8 C           5.5021    0.4818    0.0000 C.ar    1  UNL1        0.0869
      9 C           4.5921   -0.0250    0.0000 C.3     1  UNL1        0.1507
     10 C           6.3682   -0.0182    0.0000 C.ar    1  UNL1        0.1499
     11 C           6.3682    1.9818    0.0000 C.ar    1  UNL1        0.1062
     12 C           7.2342    1.4818    0.0000 C.ar    1  UNL1        0.1497
     13 C           6.3842   -1.0597    0.0000 C.ar    1  UNL1        0.0631
     14 C           5.5021    1.4818    0.0000 C.ar    1  UNL1        0.2036
     15 C           8.1442    1.9887    0.0000 C.ar    1  UNL1        0.0411
     16 C           5.4862   -1.5874    0.0000 C.ar    1  UNL1        0.1362
     17 C           3.7319    0.4850    0.0000 C.2     1  UNL1       -0.0406
     18 C           6.3521    3.0234    0.0000 C.ar    1  UNL1        0.1347
     19 C           9.0044    1.4787    0.0000 C.3     1  UNL1       -0.0023
     20 C           8.1522    3.0303    0.0000 C.ar    1  UNL1        0.1305
     21 C           7.3361   -1.5803    0.0000 C.ar    1  UNL1       -0.0023
     22 C           7.2501    3.5511    0.0000 C.ar    1  UNL1        0.0228
     23 C           5.4778   -2.6724    0.0000 C.ar    1  UNL1        0.0259
     24 C           2.8602   -0.0050    0.0000 C.2     1  UNL1       -0.0759
     25 C           7.3529   -2.6652    0.0000 C.ar    1  UNL1        0.1591
     26 C           6.4174   -3.2149    0.0000 C.ar    1  UNL1        0.1618
     27 C           9.8761    1.9687    0.0000 C.2     1  UNL1       -0.0807
     28 C           2.0000    0.5050    0.0000 C.3     1  UNL1       -0.0439
     29 C           2.8486   -1.0049    0.0000 C.3     1  UNL1       -0.0439
     30 C          10.7363    1.4587    0.0000 C.2     1  UNL1       -0.0793
     31 C           9.0240    4.5269    0.0000 C.3     1  UNL1        0.0788
     32 C          11.6080    1.9486    0.0000 C.3     1  UNL1       -0.0440
     33 C          10.7247    0.4587    0.0000 C.3     1  UNL1       -0.0440
     34 H           4.0522   -0.3298    0.0000 H       1  UNL1        0.0833
     35 H           3.7391    1.1049    0.0000 H       1  UNL1        0.0611
     36 H           8.6004    1.0084    0.0000 H       1  UNL1        0.0358
     37 H           9.3974    0.9992    0.0000 H       1  UNL1        0.0358
     38 H           7.8670   -1.2600    0.0000 H       1  UNL1        0.0663
     39 H           7.2477    4.1711    0.0000 H       1  UNL1        0.0691
     40 H           4.9397   -2.9803    0.0000 H       1  UNL1        0.0692
     41 H           9.8833    2.5886    0.0000 H       1  UNL1        0.0575
     42 H           2.3162    1.0383    0.0000 H       1  UNL1        0.0274
     43 H           1.4667    0.8212    0.0000 H       1  UNL1        0.0274
     44 H           1.6838   -0.0283    0.0000 H       1  UNL1        0.0274
     45 H           2.2287   -0.9977    0.0000 H       1  UNL1        0.0274
     46 H           2.8414   -1.6249    0.0000 H       1  UNL1        0.0274
     47 H           3.4686   -1.0121    0.0000 H       1  UNL1        0.0274
     48 H           5.4732    4.1333    0.0000 H       1  UNL1        0.2922
     49 H           9.6440    4.5245    0.0000 H       1  UNL1        0.0660
     50 H           9.0264    5.1469    0.0000 H       1  UNL1        0.0660
     51 H           8.4040    4.5293    0.0000 H       1  UNL1        0.0660
     52 H           8.2318   -3.7751    0.0000 H       1  UNL1        0.2923
     53 H           5.8856   -4.5269    0.0000 H       1  UNL1        0.2923
     54 H          11.9118    1.4082    0.0000 H       1  UNL1        0.0274
     55 H          12.1485    2.2524    0.0000 H       1  UNL1        0.0274
     56 H          11.3043    2.4891    0.0000 H       1  UNL1        0.0274
     57 H          10.1048    0.4659    0.0000 H       1  UNL1        0.0274
     58 H          10.7176   -0.1612    0.0000 H       1  UNL1        0.0274
     59 H          11.3447    0.4516    0.0000 H       1  UNL1        0.0274
@<TRIPOS>BOND
     1     1    10   ar
     2     1    12   ar
     3     2     9    1
     4     2    16    1
     5     3    14    2
     6     4    20    1
     7     4    31    1
     8     5    18    1
     9     5    48    1
    10     6    25    1
    11     6    52    1
    12     7    26    1
    13     7    53    1
    14     8     9    1
    15     8    10   ar
    16     8    14   ar
    17     9    17    1
    18     9    34    1
    19    10    13    1
    20    11    12   ar
    21    11    14   ar
    22    11    18   ar
    23    12    15   ar
    24    13    16   ar
    25    13    21   ar
    26    15    19    1
    27    15    20   ar
    28    16    23   ar
    29    17    24    2
    30    17    35    1
    31    18    22   ar
    32    19    27    1
    33    19    36    1
    34    19    37    1
    35    20    22   ar
    36    21    25   ar
    37    21    38    1
    38    22    39    1
    39    23    26   ar
    40    23    40    1
    41    24    28    1
    42    24    29    1
    43    25    26   ar
    44    27    30    2
    45    27    41    1
    46    28    42    1
    47    28    43    1
    48    28    44    1
    49    29    45    1
    50    29    46    1
    51    29    47    1
    52    30    32    1
    53    30    33    1
    54    31    49    1
    55    31    50    1
    56    31    51    1
    57    32    54    1
    58    32    55    1
    59    32    56    1
    60    33    57    1
    61    33    58    1
    62    33    59    1
