@<TRIPOS>MOLECULE
IMPHY017454
 41 40 0 0 0
SMALL
GASTEIGER

@<TRIPOS>ATOM
      1 O           4.5981    0.5000    0.0000 O.3     1  UNL1       -0.4614
      2 O           5.4641   -1.0000    0.0000 O.2     1  UNL1       -0.2508
      3 C           7.1962    0.0000    0.0000 C.3     1  UNL1       -0.0312
      4 C           8.0622    0.5000    0.0000 C.3     1  UNL1       -0.0500
      5 C           6.3301    0.5000    0.0000 C.3     1  UNL1        0.0478
      6 C           7.1962   -1.0000    0.0000 C.3     1  UNL1       -0.0526
      7 C           8.9282   -0.0000    0.0000 C.3     1  UNL1       -0.0556
      8 C           3.7320    0.0000    0.0000 C.3     1  UNL1        0.1026
      9 C           2.8660    0.5000    0.0000 C.3     1  UNL1       -0.0098
     10 C           5.4641    0.0000    0.0000 C.2     1  UNL1        0.3076
     11 C           8.0622   -1.5000    0.0000 C.3     1  UNL1       -0.0650
     12 C           3.7320   -1.0000    0.0000 C.3     1  UNL1       -0.0275
     13 C           2.0000   -0.0000    0.0000 C.3     1  UNL1       -0.0593
     14 C           2.8660    1.5000    0.0000 C.3     1  UNL1       -0.0593
     15 C           9.7942    0.5000    0.0000 C.3     1  UNL1       -0.0653
     16 H           6.6592   -0.3100    0.0000 H       1  UNL1        0.0306
     17 H           8.4607    0.9749    0.0000 H       1  UNL1        0.0268
     18 H           7.6636    0.9749    0.0000 H       1  UNL1        0.0268
     19 H           6.7287    0.9749    0.0000 H       1  UNL1        0.0380
     20 H           5.9316    0.9749    0.0000 H       1  UNL1        0.0380
     21 H           6.5856   -0.8923    0.0000 H       1  UNL1        0.0265
     22 H           6.9841   -1.5826    0.0000 H       1  UNL1        0.0265
     23 H           3.7320    0.6200    0.0000 H       1  UNL1        0.0733
     24 H           8.5297   -0.4749    0.0000 H       1  UNL1        0.0263
     25 H           9.3267   -0.4749    0.0000 H       1  UNL1        0.0263
     26 H           2.8660   -0.1200    0.0000 H       1  UNL1        0.0331
     27 H           7.7522   -2.0369    0.0000 H       1  UNL1        0.0230
     28 H           8.5991   -1.8100    0.0000 H       1  UNL1        0.0230
     29 H           8.3722   -0.9631    0.0000 H       1  UNL1        0.0230
     30 H           3.1120   -1.0000    0.0000 H       1  UNL1        0.0265
     31 H           3.7320   -1.6200    0.0000 H       1  UNL1        0.0265
     32 H           4.3520   -1.0000    0.0000 H       1  UNL1        0.0265
     33 H           1.6900    0.5369    0.0000 H       1  UNL1        0.0233
     34 H           1.4631   -0.3100    0.0000 H       1  UNL1        0.0233
     35 H           2.3100   -0.5369    0.0000 H       1  UNL1        0.0233
     36 H           3.4860    1.5000    0.0000 H       1  UNL1        0.0233
     37 H           2.8660    2.1200    0.0000 H       1  UNL1        0.0233
     38 H           2.2460    1.5000    0.0000 H       1  UNL1        0.0233
     39 H          10.1042   -0.0369    0.0000 H       1  UNL1        0.0230
     40 H          10.3312    0.8100    0.0000 H       1  UNL1        0.0230
     41 H           9.4842    1.0369    0.0000 H       1  UNL1        0.0230
@<TRIPOS>BOND
     1     1     8    1
     2     1    10    1
     3     2    10    2
     4     3     4    1
     5     3     5    1
     6     3     6    1
     7     3    16    1
     8     4     7    1
     9     4    17    1
    10     4    18    1
    11     5    10    1
    12     5    19    1
    13     5    20    1
    14     6    11    1
    15     6    21    1
    16     6    22    1
    17     7    15    1
    18     7    24    1
    19     7    25    1
    20     8     9    1
    21     8    12    1
    22     8    23    1
    23     9    13    1
    24     9    14    1
    25     9    26    1
    26    11    27    1
    27    11    28    1
    28    11    29    1
    29    12    30    1
    30    12    31    1
    31    12    32    1
    32    13    33    1
    33    13    34    1
    34    13    35    1
    35    14    36    1
    36    14    37    1
    37    14    38    1
    38    15    39    1
    39    15    40    1
    40    15    41    1
