@<TRIPOS>MOLECULE
IMPHY014483
 167 166 0 0 0
SMALL
GASTEIGER

@<TRIPOS>ATOM
      1 O          10.6603    2.0000    0.0000 O.3     1  UNL1       -0.3771
      2 O          12.3923    4.0000    0.0000 O.3     1  UNL1       -0.3720
      3 O           9.7942    3.5000    0.0000 O.3     1  UNL1       -0.3771
      4 O           2.0000  -13.0000    0.0000 O.3     1  UNL1       -0.4806
      5 O           3.7320  -13.0000    0.0000 O.2     1  UNL1       -0.2510
      6 O          22.7846   11.0000    0.0000 O.3     1  UNL1       -0.4806
      7 O          23.6506    9.5000    0.0000 O.2     1  UNL1       -0.2510
      8 O           7.1962   13.0000    0.0000 O.3     1  UNL1       -0.4806
      9 O           5.4641   13.0000    0.0000 O.2     1  UNL1       -0.2510
     10 C           7.1962   -5.0000    0.0000 C.3     1  UNL1       -0.0531
     11 C           6.3301   -5.5000    0.0000 C.3     1  UNL1       -0.0531
     12 C           7.1962   -4.0000    0.0000 C.3     1  UNL1       -0.0531
     13 C           6.3301   -6.5000    0.0000 C.3     1  UNL1       -0.0531
     14 C           8.0622   -3.5000    0.0000 C.3     1  UNL1       -0.0531
     15 C           5.4641   -7.0000    0.0000 C.3     1  UNL1       -0.0531
     16 C           8.0622   -2.5000    0.0000 C.3     1  UNL1       -0.0531
     17 C           5.4641   -8.0000    0.0000 C.3     1  UNL1       -0.0531
     18 C           8.9282   -2.0000    0.0000 C.3     1  UNL1       -0.0531
     19 C           4.5981   -8.5000    0.0000 C.3     1  UNL1       -0.0531
     20 C           8.9282   -1.0000    0.0000 C.3     1  UNL1       -0.0530
     21 C           4.5981   -9.5000    0.0000 C.3     1  UNL1       -0.0530
     22 C           9.7942   -0.5000    0.0000 C.3     1  UNL1       -0.0510
     23 C           3.7320  -10.0000    0.0000 C.3     1  UNL1       -0.0526
     24 C           9.7942    0.5000    0.0000 C.3     1  UNL1       -0.0295
     25 C           3.7320  -11.0000    0.0000 C.3     1  UNL1       -0.0430
     26 C          10.6603    1.0000    0.0000 C.3     1  UNL1        0.0478
     27 C           2.8660  -11.5000    0.0000 C.3     1  UNL1        0.0448
     28 C          11.5263    3.5000    0.0000 C.3     1  UNL1        0.1051
     29 C          11.5263    2.5000    0.0000 C.3     1  UNL1        0.0760
     30 C          14.9904    3.5000    0.0000 C.3     1  UNL1       -0.0510
     31 C          14.1244    4.0000    0.0000 C.3     1  UNL1       -0.0294
     32 C          10.6603    4.0000    0.0000 C.3     1  UNL1        0.0760
     33 C          15.8564    4.0000    0.0000 C.3     1  UNL1       -0.0527
     34 C          13.2583    3.5000    0.0000 C.3     1  UNL1        0.0482
     35 C          16.7224    3.5000    0.0000 C.3     1  UNL1       -0.0496
     36 C           2.8660  -12.5000    0.0000 C.2     1  UNL1        0.3047
     37 C          17.5885    4.0000    0.0000 C.3     1  UNL1       -0.0348
     38 C          20.1865    6.5000    0.0000 C.3     1  UNL1       -0.0528
     39 C          21.0526    7.0000    0.0000 C.3     1  UNL1       -0.0530
     40 C          20.1865    5.5000    0.0000 C.3     1  UNL1       -0.0496
     41 C          21.0526    8.0000    0.0000 C.3     1  UNL1       -0.0526
     42 C           8.9282    4.0000    0.0000 C.3     1  UNL1        0.0478
     43 C          19.3205    5.0000    0.0000 C.3     1  UNL1       -0.0348
     44 C           8.0622    3.5000    0.0000 C.3     1  UNL1       -0.0295
     45 C           7.1962    4.0000    0.0000 C.3     1  UNL1       -0.0507
     46 C          18.4545    3.5000    0.0000 C.2     1  UNL1       -0.0879
     47 C          21.9186    8.5000    0.0000 C.3     1  UNL1       -0.0430
     48 C          19.3205    4.0000    0.0000 C.2     1  UNL1       -0.0879
     49 C           6.3301    3.5000    0.0000 C.3     1  UNL1       -0.0495
     50 C           4.5981    9.5000    0.0000 C.3     1  UNL1       -0.0530
     51 C           4.5981    8.5000    0.0000 C.3     1  UNL1       -0.0528
     52 C           5.4641   10.0000    0.0000 C.3     1  UNL1       -0.0526
     53 C           3.7320    8.0000    0.0000 C.3     1  UNL1       -0.0496
     54 C           5.4641    4.0000    0.0000 C.3     1  UNL1       -0.0348
     55 C          21.9186    9.5000    0.0000 C.3     1  UNL1        0.0448
     56 C           5.4641   11.0000    0.0000 C.3     1  UNL1       -0.0430
     57 C           3.7320    7.0000    0.0000 C.3     1  UNL1       -0.0348
     58 C           6.3301   11.5000    0.0000 C.3     1  UNL1        0.0448
     59 C           4.5981    3.5000    0.0000 C.2     1  UNL1       -0.0876
     60 C           2.8660    6.5000    0.0000 C.2     1  UNL1       -0.0876
     61 C          22.7846   10.0000    0.0000 C.2     1  UNL1        0.3047
     62 C           3.7320    5.0000    0.0000 C.3     1  UNL1       -0.0165
     63 C           3.7320    4.0000    0.0000 C.2     1  UNL1       -0.0842
     64 C           2.8660    5.5000    0.0000 C.2     1  UNL1       -0.0842
     65 C           6.3301   12.5000    0.0000 C.2     1  UNL1        0.3047
     66 H           7.4082   -5.5826    0.0000 H       1  UNL1        0.0265
     67 H           7.8067   -4.8923    0.0000 H       1  UNL1        0.0265
     68 H           6.1181   -4.9174    0.0000 H       1  UNL1        0.0265
     69 H           5.7196   -5.6077    0.0000 H       1  UNL1        0.0265
     70 H           6.9841   -3.4174    0.0000 H       1  UNL1        0.0265
     71 H           6.5856   -4.1077    0.0000 H       1  UNL1        0.0265
     72 H           6.5422   -7.0826    0.0000 H       1  UNL1        0.0265
     73 H           6.9407   -6.3923    0.0000 H       1  UNL1        0.0265
     74 H           8.2742   -4.0826    0.0000 H       1  UNL1        0.0265
     75 H           8.6728   -3.3923    0.0000 H       1  UNL1        0.0265
     76 H           5.2520   -6.4174    0.0000 H       1  UNL1        0.0265
     77 H           4.8535   -7.1077    0.0000 H       1  UNL1        0.0265
     78 H           7.8501   -1.9174    0.0000 H       1  UNL1        0.0265
     79 H           7.4516   -2.6077    0.0000 H       1  UNL1        0.0265
     80 H           5.6762   -8.5826    0.0000 H       1  UNL1        0.0265
     81 H           6.0747   -7.8923    0.0000 H       1  UNL1        0.0265
     82 H           9.1403   -2.5826    0.0000 H       1  UNL1        0.0265
     83 H           9.5388   -1.8923    0.0000 H       1  UNL1        0.0265
     84 H           4.3860   -7.9174    0.0000 H       1  UNL1        0.0265
     85 H           3.9875   -8.6077    0.0000 H       1  UNL1        0.0265
     86 H           8.7162   -0.4174    0.0000 H       1  UNL1        0.0265
     87 H           8.3176   -1.1077    0.0000 H       1  UNL1        0.0265
     88 H           4.8101  -10.0826    0.0000 H       1  UNL1        0.0265
     89 H           5.2087   -9.3923    0.0000 H       1  UNL1        0.0265
     90 H          10.0063   -1.0826    0.0000 H       1  UNL1        0.0266
     91 H          10.4048   -0.3923    0.0000 H       1  UNL1        0.0266
     92 H           3.5200   -9.4174    0.0000 H       1  UNL1        0.0265
     93 H           3.1215  -10.1077    0.0000 H       1  UNL1        0.0265
     94 H           9.5822    1.0826    0.0000 H       1  UNL1        0.0287
     95 H           9.1836    0.3923    0.0000 H       1  UNL1        0.0287
     96 H           3.9441  -11.5826    0.0000 H       1  UNL1        0.0270
     97 H           4.3426  -10.8923    0.0000 H       1  UNL1        0.0270
     98 H          10.8723    0.4174    0.0000 H       1  UNL1        0.0560
     99 H          11.2708    1.1077    0.0000 H       1  UNL1        0.0560
    100 H           2.6540  -10.9174    0.0000 H       1  UNL1        0.0377
    101 H           2.2554  -11.6077    0.0000 H       1  UNL1        0.0377
    102 H          12.0632    3.1900    0.0000 H       1  UNL1        0.0642
    103 H          11.7383    1.9174    0.0000 H       1  UNL1        0.0586
    104 H          12.1369    2.6077    0.0000 H       1  UNL1        0.0586
    105 H          14.5919    3.0250    0.0000 H       1  UNL1        0.0266
    106 H          15.3889    3.0250    0.0000 H       1  UNL1        0.0266
    107 H          14.5229    4.4750    0.0000 H       1  UNL1        0.0287
    108 H          13.7258    4.4750    0.0000 H       1  UNL1        0.0287
    109 H          16.2549    4.4750    0.0000 H       1  UNL1        0.0265
    110 H          15.4579    4.4750    0.0000 H       1  UNL1        0.0265
    111 H          11.0588    4.4750    0.0000 H       1  UNL1        0.0586
    112 H          10.2617    4.4750    0.0000 H       1  UNL1        0.0586
    113 H          12.8598    3.0250    0.0000 H       1  UNL1        0.0560
    114 H          13.6569    3.0250    0.0000 H       1  UNL1        0.0560
    115 H          16.3239    3.0250    0.0000 H       1  UNL1        0.0268
    116 H          17.1210    3.0250    0.0000 H       1  UNL1        0.0268
    117 H          17.9870    4.4750    0.0000 H       1  UNL1        0.0307
    118 H          17.1899    4.4750    0.0000 H       1  UNL1        0.0307
    119 H          19.9745    7.0826    0.0000 H       1  UNL1        0.0265
    120 H          19.5760    6.3923    0.0000 H       1  UNL1        0.0265
    121 H          21.2646    6.4174    0.0000 H       1  UNL1        0.0265
    122 H          21.6631    7.1077    0.0000 H       1  UNL1        0.0265
    123 H          20.3986    4.9174    0.0000 H       1  UNL1        0.0268
    124 H          20.7971    5.6077    0.0000 H       1  UNL1        0.0268
    125 H          20.8405    8.5826    0.0000 H       1  UNL1        0.0265
    126 H          20.4420    7.8923    0.0000 H       1  UNL1        0.0265
    127 H           9.3267    4.4750    0.0000 H       1  UNL1        0.0560
    128 H           8.5297    4.4750    0.0000 H       1  UNL1        0.0560
    129 H          19.1085    5.5826    0.0000 H       1  UNL1        0.0307
    130 H          18.7099    4.8923    0.0000 H       1  UNL1        0.0307
    131 H           7.6636    3.0250    0.0000 H       1  UNL1        0.0287
    132 H           8.4607    3.0250    0.0000 H       1  UNL1        0.0287
    133 H           7.5947    4.4750    0.0000 H       1  UNL1        0.0266
    134 H           6.7976    4.4750    0.0000 H       1  UNL1        0.0266
    135 H          18.4545    2.8800    0.0000 H       1  UNL1        0.0569
    136 H          22.1306    7.9174    0.0000 H       1  UNL1        0.0270
    137 H          22.5292    8.6077    0.0000 H       1  UNL1        0.0270
    138 H          19.8574    3.6900    0.0000 H       1  UNL1        0.0569
    139 H           5.9316    3.0250    0.0000 H       1  UNL1        0.0268
    140 H           6.7287    3.0250    0.0000 H       1  UNL1        0.0268
    141 H           4.3860   10.0826    0.0000 H       1  UNL1        0.0265
    142 H           3.9875    9.3923    0.0000 H       1  UNL1        0.0265
    143 H           4.8101    7.9174    0.0000 H       1  UNL1        0.0265
    144 H           5.2087    8.6077    0.0000 H       1  UNL1        0.0265
    145 H           5.6762    9.4174    0.0000 H       1  UNL1        0.0265
    146 H           6.0747   10.1077    0.0000 H       1  UNL1        0.0265
    147 H           3.5200    8.5826    0.0000 H       1  UNL1        0.0268
    148 H           3.1215    7.8923    0.0000 H       1  UNL1        0.0268
    149 H           5.8626    4.4750    0.0000 H       1  UNL1        0.0307
    150 H           5.0656    4.4750    0.0000 H       1  UNL1        0.0307
    151 H          21.7065   10.0826    0.0000 H       1  UNL1        0.0377
    152 H          21.3080    9.3923    0.0000 H       1  UNL1        0.0377
    153 H           5.2520   11.5826    0.0000 H       1  UNL1        0.0270
    154 H           4.8535   10.8923    0.0000 H       1  UNL1        0.0270
    155 H           3.9441    6.4174    0.0000 H       1  UNL1        0.0307
    156 H           4.3426    7.1077    0.0000 H       1  UNL1        0.0307
    157 H           2.0000  -13.6200    0.0000 H       1  UNL1        0.2951
    158 H           6.5422   10.9174    0.0000 H       1  UNL1        0.0377
    159 H           6.9407   11.6077    0.0000 H       1  UNL1        0.0377
    160 H           4.5981    2.8800    0.0000 H       1  UNL1        0.0569
    161 H           2.3291    6.8100    0.0000 H       1  UNL1        0.0569
    162 H           4.3426    4.8923    0.0000 H       1  UNL1        0.0350
    163 H           3.9441    5.5826    0.0000 H       1  UNL1        0.0350
    164 H           3.1951    3.6900    0.0000 H       1  UNL1        0.0572
    165 H           2.3291    5.1900    0.0000 H       1  UNL1        0.0572
    166 H          23.3215   11.3100    0.0000 H       1  UNL1        0.2951
    167 H           7.1962   13.6200    0.0000 H       1  UNL1        0.2951
@<TRIPOS>BOND
     1     1    26    1
     2     1    29    1
     3     2    28    1
     4     2    34    1
     5     3    32    1
     6     3    42    1
     7     4    36    1
     8     4   157    1
     9     5    36    2
    10     6    61    1
    11     6   166    1
    12     7    61    2
    13     8    65    1
    14     8   167    1
    15     9    65    2
    16    10    11    1
    17    10    12    1
    18    10    66    1
    19    10    67    1
    20    11    13    1
    21    11    68    1
    22    11    69    1
    23    12    14    1
    24    12    70    1
    25    12    71    1
    26    13    15    1
    27    13    72    1
    28    13    73    1
    29    14    16    1
    30    14    74    1
    31    14    75    1
    32    15    17    1
    33    15    76    1
    34    15    77    1
    35    16    18    1
    36    16    78    1
    37    16    79    1
    38    17    19    1
    39    17    80    1
    40    17    81    1
    41    18    20    1
    42    18    82    1
    43    18    83    1
    44    19    21    1
    45    19    84    1
    46    19    85    1
    47    20    22    1
    48    20    86    1
    49    20    87    1
    50    21    23    1
    51    21    88    1
    52    21    89    1
    53    22    24    1
    54    22    90    1
    55    22    91    1
    56    23    25    1
    57    23    92    1
    58    23    93    1
    59    24    26    1
    60    24    94    1
    61    24    95    1
    62    25    27    1
    63    25    96    1
    64    25    97    1
    65    26    98    1
    66    26    99    1
    67    27    36    1
    68    27   100    1
    69    27   101    1
    70    28    29    1
    71    28    32    1
    72    28   102    1
    73    29   103    1
    74    29   104    1
    75    30    31    1
    76    30    33    1
    77    30   105    1
    78    30   106    1
    79    31    34    1
    80    31   107    1
    81    31   108    1
    82    32   111    1
    83    32   112    1
    84    33    35    1
    85    33   109    1
    86    33   110    1
    87    34   113    1
    88    34   114    1
    89    35    37    1
    90    35   115    1
    91    35   116    1
    92    37    46    1
    93    37   117    1
    94    37   118    1
    95    38    39    1
    96    38    40    1
    97    38   119    1
    98    38   120    1
    99    39    41    1
   100    39   121    1
   101    39   122    1
   102    40    43    1
   103    40   123    1
   104    40   124    1
   105    41    47    1
   106    41   125    1
   107    41   126    1
   108    42    44    1
   109    42   127    1
   110    42   128    1
   111    43    48    1
   112    43   129    1
   113    43   130    1
   114    44    45    1
   115    44   131    1
   116    44   132    1
   117    45    49    1
   118    45   133    1
   119    45   134    1
   120    46    48    2
   121    46   135    1
   122    47    55    1
   123    47   136    1
   124    47   137    1
   125    48   138    1
   126    49    54    1
   127    49   139    1
   128    49   140    1
   129    50    51    1
   130    50    52    1
   131    50   141    1
   132    50   142    1
   133    51    53    1
   134    51   143    1
   135    51   144    1
   136    52    56    1
   137    52   145    1
   138    52   146    1
   139    53    57    1
   140    53   147    1
   141    53   148    1
   142    54    59    1
   143    54   149    1
   144    54   150    1
   145    55    61    1
   146    55   151    1
   147    55   152    1
   148    56    58    1
   149    56   153    1
   150    56   154    1
   151    57    60    1
   152    57   155    1
   153    57   156    1
   154    58    65    1
   155    58   158    1
   156    58   159    1
   157    59    63    2
   158    59   160    1
   159    60    64    2
   160    60   161    1
   161    62    63    1
   162    62    64    1
   163    62   162    1
   164    62   163    1
   165    63   164    1
   166    64   165    1
