@<TRIPOS>MOLECULE
IMPHY010849
 170 180 0 0 0
SMALL
GASTEIGER

@<TRIPOS>ATOM
      1 O          14.3523    5.5403    0.0000 O.3     1  UNL1       -0.3448
      2 O          12.5799    6.4351    0.0000 O.3     1  UNL1       -0.3480
      3 O          12.9292   -2.7038    0.0000 O.3     1  UNL1       -0.3454
      4 O          11.1972   -2.7038    0.0000 O.3     1  UNL1       -0.3405
      5 O          12.9292   -4.7038    0.0000 O.3     1  UNL1       -0.3378
      6 O          11.1972   -5.7038    0.0000 O.3     1  UNL1       -0.3864
      7 O           9.4651   -4.7038    0.0000 O.3     1  UNL1       -0.3401
      8 O          13.7953   -3.2038    0.0000 O.3     1  UNL1       -0.3431
      9 O           9.4651   -1.7038    0.0000 O.3     1  UNL1       -0.3924
     10 O           8.5991   -3.2038    0.0000 O.3     1  UNL1       -0.3405
     11 O          14.6613   -5.7038    0.0000 O.3     1  UNL1       -0.3841
     12 O          16.3933   -4.7038    0.0000 O.3     1  UNL1       -0.3864
     13 O           7.7331   -5.7038    0.0000 O.3     1  UNL1       -0.3378
     14 O          16.3933   -2.7038    0.0000 O.3     1  UNL1       -0.3866
     15 O           6.0010   -4.7038    0.0000 O.3     1  UNL1       -0.3401
     16 O           6.0010   -2.7038    0.0000 O.3     1  UNL1       -0.3865
     17 O           6.0010   -5.7038    0.0000 O.3     1  UNL1       -0.3461
     18 O           6.8671   -1.2038    0.0000 O.3     1  UNL1       -0.3924
     19 O           5.1350   -3.2038    0.0000 O.3     1  UNL1       -0.3461
     20 O           7.7331   -7.7038    0.0000 O.3     1  UNL1       -0.3841
     21 O           4.2690   -5.7038    0.0000 O.3     1  UNL1       -0.3841
     22 O           6.0010   -8.7038    0.0000 O.3     1  UNL1       -0.3864
     23 O           4.2690   -7.7038    0.0000 O.3     1  UNL1       -0.3869
     24 O           2.5369   -4.7038    0.0000 O.3     1  UNL1       -0.3864
     25 O           2.5369   -2.7038    0.0000 O.3     1  UNL1       -0.3869
     26 C          12.9585    3.4931    0.0000 C.3     1  UNL1       -0.0233
     27 C          13.8264    2.9965    0.0000 C.3     1  UNL1       -0.0298
     28 C          13.8303    1.9965    0.0000 C.3     1  UNL1       -0.0343
     29 C          13.1640    4.4657    0.0000 C.3     1  UNL1       -0.0015
     30 C          12.9662    1.4931    0.0000 C.3     1  UNL1       -0.0323
     31 C          14.1523    4.5726    0.0000 C.3     1  UNL1        0.0660
     32 C          12.9542    0.4516    0.0000 C.3     1  UNL1       -0.0260
     33 C          14.5609    3.6664    0.0000 C.3     1  UNL1       -0.0226
     34 C          12.0944    2.9898    0.0000 C.3     1  UNL1       -0.0467
     35 C          12.0983    1.9898    0.0000 C.3     1  UNL1       -0.0489
     36 C          12.7617    5.3683    0.0000 C.3     1  UNL1        0.0160
     37 C          13.8542   -0.0727    0.0000 C.3     1  UNL1       -0.0330
     38 C          14.7422    1.4931    0.0000 C.3     1  UNL1       -0.0494
     39 C          13.4946    6.0311    0.0000 C.3     1  UNL1        0.1732
     40 C          14.7543    0.4516    0.0000 C.3     1  UNL1       -0.0494
     41 C          12.0906    3.9898    0.0000 C.3     1  UNL1       -0.0590
     42 C          12.0043   -0.0727    0.0000 C.3     1  UNL1       -0.0448
     43 C          13.8668   -1.1576    0.0000 C.3     1  UNL1       -0.0232
     44 C          12.0901    0.9549    0.0000 C.3     1  UNL1       -0.0590
     45 C          11.9917   -1.1576    0.0000 C.3     1  UNL1       -0.0260
     46 C          11.7833    5.5750    0.0000 C.3     1  UNL1       -0.0572
     47 C          12.9292   -1.7038    0.0000 C.3     1  UNL1        0.0621
     48 C          14.3019    6.6213    0.0000 C.3     1  UNL1        0.0020
     49 C          14.1944    7.6155    0.0000 C.3     1  UNL1       -0.0435
     50 C          12.4724    7.4293    0.0000 C.3     1  UNL1        0.0535
     51 C          13.2796    8.0195    0.0000 C.3     1  UNL1       -0.0201
     52 C          13.1721    9.0138    0.0000 C.3     1  UNL1       -0.0603
     53 C          12.0632   -3.2038    0.0000 C.3     1  UNL1        0.1886
     54 C          12.0632   -4.2038    0.0000 C.3     1  UNL1        0.1406
     55 C          11.1972   -4.7038    0.0000 C.3     1  UNL1        0.1148
     56 C          10.3312   -3.2038    0.0000 C.3     1  UNL1        0.1134
     57 C          10.3312   -4.2038    0.0000 C.3     1  UNL1        0.1184
     58 C           9.4651   -2.7038    0.0000 C.3     1  UNL1        0.0730
     59 C          13.7953   -4.2038    0.0000 C.3     1  UNL1        0.1884
     60 C          14.6613   -4.7038    0.0000 C.3     1  UNL1        0.1341
     61 C           8.5991   -4.2038    0.0000 C.3     1  UNL1        0.1888
     62 C          15.5273   -4.2038    0.0000 C.3     1  UNL1        0.1140
     63 C           7.7331   -4.7038    0.0000 C.3     1  UNL1        0.1410
     64 C          14.6613   -2.7038    0.0000 C.3     1  UNL1        0.0873
     65 C          15.5273   -3.2038    0.0000 C.3     1  UNL1        0.1095
     66 C           6.8671   -4.2038    0.0000 C.3     1  UNL1        0.1209
     67 C           7.7331   -2.7038    0.0000 C.3     1  UNL1        0.1130
     68 C           6.8671   -3.2038    0.0000 C.3     1  UNL1        0.1123
     69 C          14.6613   -1.7038    0.0000 C.3     1  UNL1       -0.0361
     70 C           7.7331   -1.7038    0.0000 C.3     1  UNL1        0.0730
     71 C           6.8671   -6.2038    0.0000 C.3     1  UNL1        0.1881
     72 C           5.1350   -4.2038    0.0000 C.3     1  UNL1        0.1880
     73 C           6.8671   -7.2038    0.0000 C.3     1  UNL1        0.1341
     74 C           4.2690   -4.7038    0.0000 C.3     1  UNL1        0.1341
     75 C           6.0010   -7.7038    0.0000 C.3     1  UNL1        0.1137
     76 C           5.1350   -6.2038    0.0000 C.3     1  UNL1        0.0792
     77 C           5.1350   -7.2038    0.0000 C.3     1  UNL1        0.1069
     78 C           3.4030   -4.2038    0.0000 C.3     1  UNL1        0.1137
     79 C           4.2690   -2.7038    0.0000 C.3     1  UNL1        0.0792
     80 C           3.4030   -3.2038    0.0000 C.3     1  UNL1        0.1069
     81 H          14.6047    2.6548    0.0000 H       1  UNL1        0.0310
     82 H          14.5615    2.4300    0.0000 H       1  UNL1        0.0306
     83 H          12.3187    4.3762    0.0000 H       1  UNL1        0.0335
     84 H          13.7007    1.0653    0.0000 H       1  UNL1        0.0309
     85 H          14.9972    4.6658    0.0000 H       1  UNL1        0.0600
     86 H          14.9283    3.1670    0.0000 H       1  UNL1        0.0293
     87 H          15.0962    3.9792    0.0000 H       1  UNL1        0.0293
     88 H          11.8801    3.5716    0.0000 H       1  UNL1        0.0271
     89 H          11.4842    2.8798    0.0000 H       1  UNL1        0.0271
     90 H          11.4873    2.0951    0.0000 H       1  UNL1        0.0268
     91 H          11.8885    1.4064    0.0000 H       1  UNL1        0.0268
     92 H          12.3719    4.8862    0.0000 H       1  UNL1        0.0354
     93 H          14.5936   -0.4920    0.0000 H       1  UNL1        0.0307
     94 H          15.3543    1.3941    0.0000 H       1  UNL1        0.0268
     95 H          14.9445    2.0792    0.0000 H       1  UNL1        0.0268
     96 H          14.9701   -0.1297    0.0000 H       1  UNL1        0.0268
     97 H          15.3639    0.5647    0.0000 H       1  UNL1        0.0268
     98 H          12.3985    4.5279    0.0000 H       1  UNL1        0.0235
     99 H          11.5524    4.2977    0.0000 H       1  UNL1        0.0235
    100 H          11.7826    3.4517    0.0000 H       1  UNL1        0.0235
    101 H          11.8020    0.5134    0.0000 H       1  UNL1        0.0271
    102 H          11.3922   -0.1717    0.0000 H       1  UNL1        0.0271
    103 H          14.0826   -1.7389    0.0000 H       1  UNL1        0.0293
    104 H          14.4764   -1.0445    0.0000 H       1  UNL1        0.0293
    105 H          12.4021    1.4906    0.0000 H       1  UNL1        0.0235
    106 H          11.5543    1.2670    0.0000 H       1  UNL1        0.0235
    107 H          11.7780    0.4192    0.0000 H       1  UNL1        0.0235
    108 H          11.3821   -1.0445    0.0000 H       1  UNL1        0.0290
    109 H          11.7759   -1.7389    0.0000 H       1  UNL1        0.0290
    110 H          11.9114    6.1816    0.0000 H       1  UNL1        0.0234
    111 H          11.1766    5.7032    0.0000 H       1  UNL1        0.0234
    112 H          11.6551    4.9684    0.0000 H       1  UNL1        0.0234
    113 H          12.3917   -2.0127    0.0000 H       1  UNL1        0.0597
    114 H          14.5753    6.0649    0.0000 H       1  UNL1        0.0317
    115 H          14.8974    6.7940    0.0000 H       1  UNL1        0.0317
    116 H          14.8130    7.5741    0.0000 H       1  UNL1        0.0270
    117 H          14.3426    8.2176    0.0000 H       1  UNL1        0.0270
    118 H          12.1989    7.9858    0.0000 H       1  UNL1        0.0563
    119 H          11.8769    7.2567    0.0000 H       1  UNL1        0.0563
    120 H          13.7801    8.3855    0.0000 H       1  UNL1        0.0320
    121 H          13.7885    9.0804    0.0000 H       1  UNL1        0.0233
    122 H          13.1055    9.6302    0.0000 H       1  UNL1        0.0233
    123 H          12.5557    8.9471    0.0000 H       1  UNL1        0.0233
    124 H          12.6002   -3.5138    0.0000 H       1  UNL1        0.0938
    125 H          12.0632   -4.8238    0.0000 H       1  UNL1        0.0675
    126 H          10.6603   -5.0138    0.0000 H       1  UNL1        0.0648
    127 H          10.3312   -2.5838    0.0000 H       1  UNL1        0.0647
    128 H           9.7942   -3.8938    0.0000 H       1  UNL1        0.0651
    129 H           8.8546   -2.5961    0.0000 H       1  UNL1        0.0584
    130 H           9.2531   -3.2864    0.0000 H       1  UNL1        0.0584
    131 H          13.7953   -4.8238    0.0000 H       1  UNL1        0.0938
    132 H          10.6603   -6.0138    0.0000 H       1  UNL1        0.2100
    133 H          15.1982   -5.0138    0.0000 H       1  UNL1        0.0671
    134 H           8.5991   -4.8238    0.0000 H       1  UNL1        0.0938
    135 H           8.9282   -1.3938    0.0000 H       1  UNL1        0.2095
    136 H          16.0643   -3.8938    0.0000 H       1  UNL1        0.0648
    137 H           7.1962   -5.0138    0.0000 H       1  UNL1        0.0675
    138 H          14.1244   -2.3938    0.0000 H       1  UNL1        0.0621
    139 H          15.5273   -2.5838    0.0000 H       1  UNL1        0.0646
    140 H           6.3301   -3.8938    0.0000 H       1  UNL1        0.0651
    141 H          15.1982   -6.0138    0.0000 H       1  UNL1        0.2101
    142 H           8.2700   -2.3938    0.0000 H       1  UNL1        0.0647
    143 H           6.8671   -2.5838    0.0000 H       1  UNL1        0.0647
    144 H          15.2813   -1.7038    0.0000 H       1  UNL1        0.0255
    145 H          14.6613   -1.0838    0.0000 H       1  UNL1        0.0255
    146 H          14.0413   -1.7038    0.0000 H       1  UNL1        0.0255
    147 H          16.9303   -4.3938    0.0000 H       1  UNL1        0.2100
    148 H          16.9303   -3.0138    0.0000 H       1  UNL1        0.2100
    149 H           8.3437   -1.8114    0.0000 H       1  UNL1        0.0584
    150 H           7.9451   -1.1211    0.0000 H       1  UNL1        0.0584
    151 H           6.8671   -5.5838    0.0000 H       1  UNL1        0.0937
    152 H           6.0010   -2.0838    0.0000 H       1  UNL1        0.2100
    153 H           5.1350   -4.8238    0.0000 H       1  UNL1        0.0937
    154 H           7.4040   -6.8938    0.0000 H       1  UNL1        0.0671
    155 H           6.8671   -0.5837    0.0000 H       1  UNL1        0.2095
    156 H           3.7320   -5.0138    0.0000 H       1  UNL1        0.0671
    157 H           6.5380   -8.0138    0.0000 H       1  UNL1        0.0647
    158 H           4.9230   -5.6211    0.0000 H       1  UNL1        0.0587
    159 H           4.5244   -6.3114    0.0000 H       1  UNL1        0.0587
    160 H           5.1350   -7.8238    0.0000 H       1  UNL1        0.0643
    161 H           2.8660   -3.8938    0.0000 H       1  UNL1        0.0647
    162 H           8.2700   -7.3938    0.0000 H       1  UNL1        0.2101
    163 H           4.6675   -2.2288    0.0000 H       1  UNL1        0.0587
    164 H           3.8705   -2.2288    0.0000 H       1  UNL1        0.0587
    165 H           3.4030   -2.5838    0.0000 H       1  UNL1        0.0643
    166 H           3.7320   -6.0138    0.0000 H       1  UNL1        0.2101
    167 H           6.5380   -9.0138    0.0000 H       1  UNL1        0.2100
    168 H           3.7320   -7.3938    0.0000 H       1  UNL1        0.2100
    169 H           2.0000   -4.3938    0.0000 H       1  UNL1        0.2100
    170 H           2.5369   -2.0838    0.0000 H       1  UNL1        0.2100
@<TRIPOS>BOND
     1     1    31    1
     2    39     1    1
     3     2    39    1
     4     2    50    1
     5    47     3    1
     6    53     3    1
     7     4    53    1
     8     4    56    1
     9    54     5    1
    10    59     5    1
    11    55     6    1
    12     6   132    1
    13    57     7    1
    14    61     7    1
    15     8    59    1
    16     8    64    1
    17     9    58    1
    18     9   135    1
    19    10    61    1
    20    10    67    1
    21    60    11    1
    22    11   141    1
    23    62    12    1
    24    12   147    1
    25    63    13    1
    26    71    13    1
    27    65    14    1
    28    14   148    1
    29    66    15    1
    30    72    15    1
    31    68    16    1
    32    16   152    1
    33    17    71    1
    34    17    76    1
    35    18    70    1
    36    18   155    1
    37    19    72    1
    38    19    79    1
    39    73    20    1
    40    20   162    1
    41    74    21    1
    42    21   166    1
    43    75    22    1
    44    22   167    1
    45    77    23    1
    46    23   168    1
    47    78    24    1
    48    24   169    1
    49    80    25    1
    50    25   170    1
    51    26    27    1
    52    26    29    1
    53    26    34    1
    54    26    41    1
    55    27    28    1
    56    27    33    1
    57    27    81    1
    58    28    30    1
    59    28    38    1
    60    28    82    1
    61    29    31    1
    62    29    36    1
    63    29    83    1
    64    30    32    1
    65    30    35    1
    66    30    84    1
    67    31    33    1
    68    31    85    1
    69    32    37    1
    70    32    42    1
    71    32    44    1
    72    33    86    1
    73    33    87    1
    74    34    35    1
    75    34    88    1
    76    34    89    1
    77    35    90    1
    78    35    91    1
    79    36    39    1
    80    36    46    1
    81    36    92    1
    82    37    40    1
    83    37    43    1
    84    37    93    1
    85    38    40    1
    86    38    94    1
    87    38    95    1
    88    39    48    1
    89    40    96    1
    90    40    97    1
    91    41    98    1
    92    41    99    1
    93    41   100    1
    94    42    45    1
    95    42   101    1
    96    42   102    1
    97    43    47    1
    98    43   103    1
    99    43   104    1
   100    44   105    1
   101    44   106    1
   102    44   107    1
   103    45    47    1
   104    45   108    1
   105    45   109    1
   106    46   110    1
   107    46   111    1
   108    46   112    1
   109    47   113    1
   110    48    49    1
   111    48   114    1
   112    48   115    1
   113    49    51    1
   114    49   116    1
   115    49   117    1
   116    50    51    1
   117    50   118    1
   118    50   119    1
   119    51    52    1
   120    51   120    1
   121    52   121    1
   122    52   122    1
   123    52   123    1
   124    53    54    1
   125    53   124    1
   126    54    55    1
   127    54   125    1
   128    55    57    1
   129    55   126    1
   130    56    57    1
   131    56    58    1
   132    56   127    1
   133    57   128    1
   134    58   129    1
   135    58   130    1
   136    59    60    1
   137    59   131    1
   138    60    62    1
   139    60   133    1
   140    61    63    1
   141    61   134    1
   142    62    65    1
   143    62   136    1
   144    63    66    1
   145    63   137    1
   146    64    65    1
   147    64    69    1
   148    64   138    1
   149    65   139    1
   150    66    68    1
   151    66   140    1
   152    67    68    1
   153    67    70    1
   154    67   142    1
   155    68   143    1
   156    69   144    1
   157    69   145    1
   158    69   146    1
   159    70   149    1
   160    70   150    1
   161    71    73    1
   162    71   151    1
   163    72    74    1
   164    72   153    1
   165    73    75    1
   166    73   154    1
   167    74    78    1
   168    74   156    1
   169    75    77    1
   170    75   157    1
   171    76    77    1
   172    76   158    1
   173    76   159    1
   174    77   160    1
   175    78    80    1
   176    78   161    1
   177    79    80    1
   178    79   163    1
   179    79   164    1
   180    80   165    1
