@<TRIPOS>MOLECULE
IMPHY010957
 26 25 0 0 0
SMALL
GASTEIGER

@<TRIPOS>ATOM
      1 O           4.5981   -1.1550    0.0000 O.3     1  UNL1       -0.3741
      2 O           5.4641    1.3450    0.0000 O.3     1  UNL1       -0.3866
      3 O           7.1962    0.3450    0.0000 O.3     1  UNL1       -0.3894
      4 O           3.7320    1.3450    0.0000 O.3     1  UNL1       -0.3819
      5 O           2.0000    0.3450    0.0000 O.2     1  UNL1       -0.2982
      6 C           5.4641    0.3450    0.0000 C.3     1  UNL1        0.1096
      7 C           4.5981   -0.1550    0.0000 C.3     1  UNL1        0.1189
      8 C           6.3301   -0.1550    0.0000 C.3     1  UNL1        0.0808
      9 C           3.7320    0.3450    0.0000 C.3     1  UNL1        0.1384
     10 C           6.3301   -1.1550    0.0000 C.3     1  UNL1       -0.0364
     11 C           2.8660   -0.1550    0.0000 C.2     1  UNL1        0.1512
     12 C           3.7320   -1.6550    0.0000 C.3     1  UNL1        0.0370
     13 H           6.0010    0.6550    0.0000 H       1  UNL1        0.0646
     14 H           5.1350   -0.4650    0.0000 H       1  UNL1        0.0653
     15 H           6.8671   -0.4650    0.0000 H       1  UNL1        0.0617
     16 H           4.2690    0.6550    0.0000 H       1  UNL1        0.0697
     17 H           5.7101   -1.1550    0.0000 H       1  UNL1        0.0255
     18 H           6.3301   -1.7750    0.0000 H       1  UNL1        0.0255
     19 H           6.9501   -1.1550    0.0000 H       1  UNL1        0.0255
     20 H           6.0010    1.6550    0.0000 H       1  UNL1        0.2100
     21 H           2.8660   -0.7750    0.0000 H       1  UNL1        0.1055
     22 H           7.7331    0.0350    0.0000 H       1  UNL1        0.2099
     23 H           3.1951    1.6550    0.0000 H       1  UNL1        0.2105
     24 H           3.4220   -1.1181    0.0000 H       1  UNL1        0.0524
     25 H           3.1951   -1.9650    0.0000 H       1  UNL1        0.0524
     26 H           4.0420   -2.1919    0.0000 H       1  UNL1        0.0524
@<TRIPOS>BOND
     1     7     1    1
     2     1    12    1
     3     6     2    1
     4     2    20    1
     5     8     3    1
     6     3    22    1
     7     9     4    1
     8     4    23    1
     9     5    11    2
    10     6     7    1
    11     6     8    1
    12     6    13    1
    13     7     9    1
    14     7    14    1
    15     8    10    1
    16     8    15    1
    17     9    11    1
    18     9    16    1
    19    10    17    1
    20    10    18    1
    21    10    19    1
    22    11    21    1
    23    12    24    1
    24    12    25    1
    25    12    26    1
