@<TRIPOS>MOLECULE
IMPHY010465
 51 53 0 0 0
SMALL
GASTEIGER

@<TRIPOS>ATOM
      1 O           2.0000   -2.5884    0.0000 O.2     1  UNL1       -0.3004
      2 C           4.3838   -0.1704    0.0000 C.3     1  UNL1       -0.0219
      3 C           4.3838   -1.1704    0.0000 C.3     1  UNL1       -0.0230
      4 C           5.2498    0.3296    0.0000 C.3     1  UNL1       -0.0142
      5 C           3.4899   -1.7050    0.0000 C.3     1  UNL1        0.0265
      6 C           3.4899    0.3643    0.0000 C.3     1  UNL1       -0.0468
      7 C           5.2498   -1.6704    0.0000 C.3     1  UNL1       -0.0451
      8 C           6.1159   -0.1704    0.0000 C.2     1  UNL1       -0.0690
      9 C           2.5838   -1.1912    0.0000 C.3     1  UNL1       -0.0409
     10 C           2.5838   -0.1496    0.0000 C.3     1  UNL1       -0.0517
     11 C           5.2338    1.3711    0.0000 C.3     1  UNL1       -0.0449
     12 C           6.1159   -1.1704    0.0000 C.3     1  UNL1       -0.0311
     13 C           4.3838    0.8296    0.0000 C.3     1  UNL1       -0.0587
     14 C           6.1318    1.8989    0.0000 C.3     1  UNL1       -0.0401
     15 C           7.0339    1.3781    0.0000 C.3     1  UNL1        0.0039
     16 C           7.0259    0.3365    0.0000 C.2     1  UNL1       -0.0749
     17 C           3.9999   -2.5652    0.0000 C.3     1  UNL1       -0.0528
     18 C           2.9999   -2.5768    0.0000 C.2     1  UNL1        0.1264
     19 C           8.0339    1.3742    0.0000 C.3     1  UNL1       -0.0526
     20 C           7.5372    2.2422    0.0000 C.2     1  UNL1       -0.0815
     21 C           7.0406    3.1101    0.0000 C.2     1  UNL1       -0.1018
     22 H           4.3904   -2.0204    0.0000 H       1  UNL1        0.0316
     23 H           5.9827    0.7603    0.0000 H       1  UNL1        0.0351
     24 H           3.8945    0.8341    0.0000 H       1  UNL1        0.0271
     25 H           3.0963    0.8433    0.0000 H       1  UNL1        0.0271
     26 H           4.8513   -2.1453    0.0000 H       1  UNL1        0.0271
     27 H           5.6484   -2.1453    0.0000 H       1  UNL1        0.0271
     28 H           1.9730   -1.0851    0.0000 H       1  UNL1        0.0275
     29 H           2.3748   -1.7749    0.0000 H       1  UNL1        0.0275
     30 H           2.3748    0.4341    0.0000 H       1  UNL1        0.0266
     31 H           1.9730   -0.2557    0.0000 H       1  UNL1        0.0266
     32 H           5.0158    1.9515    0.0000 H       1  UNL1        0.0272
     33 H           4.6246    1.2556    0.0000 H       1  UNL1        0.0272
     34 H           6.3279   -1.7530    0.0000 H       1  UNL1        0.0310
     35 H           6.7265   -1.0627    0.0000 H       1  UNL1        0.0310
     36 H           5.0038    0.8296    0.0000 H       1  UNL1        0.0235
     37 H           4.3838    1.4496    0.0000 H       1  UNL1        0.0235
     38 H           3.7638    0.8296    0.0000 H       1  UNL1        0.0235
     39 H           6.5291    2.3748    0.0000 H       1  UNL1        0.0277
     40 H           5.7309    2.3718    0.0000 H       1  UNL1        0.0277
     41 H           7.5592    0.0203    0.0000 H       1  UNL1        0.0580
     42 H           3.4666   -2.8814    0.0000 H       1  UNL1        0.0239
     43 H           4.3160   -3.0985    0.0000 H       1  UNL1        0.0239
     44 H           4.5332   -2.2490    0.0000 H       1  UNL1        0.0239
     45 H           3.3161   -3.1101    0.0000 H       1  UNL1        0.1032
     46 H           8.0315    0.7542    0.0000 H       1  UNL1        0.0241
     47 H           8.6539    1.3718    0.0000 H       1  UNL1        0.0241
     48 H           8.0363    1.9942    0.0000 H       1  UNL1        0.0241
     49 H           8.1572    2.2398    0.0000 H       1  UNL1        0.0575
     50 H           7.3526    3.6458    0.0000 H       1  UNL1        0.0532
     51 H           6.4206    3.1125    0.0000 H       1  UNL1        0.0532
@<TRIPOS>BOND
     1     1    18    2
     2     2     3    1
     3     2     4    1
     4     2     6    1
     5     2    13    1
     6     3     5    1
     7     3     7    1
     8     3    22    1
     9     4     8    1
    10     4    11    1
    11     4    23    1
    12     5     9    1
    13     5    17    1
    14     5    18    1
    15     6    10    1
    16     6    24    1
    17     6    25    1
    18     7    12    1
    19     7    26    1
    20     7    27    1
    21     8    12    1
    22     8    16    2
    23     9    10    1
    24     9    28    1
    25     9    29    1
    26    10    30    1
    27    10    31    1
    28    11    14    1
    29    11    32    1
    30    11    33    1
    31    12    34    1
    32    12    35    1
    33    13    36    1
    34    13    37    1
    35    13    38    1
    36    14    15    1
    37    14    39    1
    38    14    40    1
    39    15    16    1
    40    15    19    1
    41    15    20    1
    42    16    41    1
    43    17    42    1
    44    17    43    1
    45    17    44    1
    46    18    45    1
    47    19    46    1
    48    19    47    1
    49    19    48    1
    50    20    21    2
    51    20    49    1
    52    21    50    1
    53    21    51    1
