@<TRIPOS>MOLECULE
IMPHY008103
 68 74 0 0 0
SMALL
GASTEIGER

@<TRIPOS>ATOM
      1 O          10.3123    0.2412    0.0000 O.3     1  UNL1       -0.3608
      2 O           7.1618   -2.1070    0.0000 O.3     1  UNL1       -0.4562
      3 O           8.6618   -2.0935    0.0000 O.3     1  UNL1       -0.3277
      4 O           8.4101   -3.4693    0.0000 O.2     1  UNL1       -0.2474
      5 O           4.3331    2.5512    0.0000 O.3     1  UNL1       -0.4532
      6 O          10.3938   -2.0935    0.0000 O.3     1  UNL1       -0.3405
      7 O           3.0873    1.2407    0.0000 O.2     1  UNL1       -0.2453
      8 O           8.6618   -4.0935    0.0000 O.3     1  UNL1       -0.3841
      9 O          10.3938   -5.0935    0.0000 O.3     1  UNL1       -0.3864
     10 O          12.1259   -4.0935    0.0000 O.3     1  UNL1       -0.3865
     11 O           6.5501    5.1336    0.0000 O.2     1  UNL1       -0.4706
     12 O          12.9919   -2.5935    0.0000 O.3     1  UNL1       -0.3924
     13 C           6.2998   -0.7100    0.0000 C.3     1  UNL1        0.0206
     14 C           6.5587    0.2560    0.0000 C.3     1  UNL1        0.0173
     15 C           8.3198   -1.1538    0.0000 C.3     1  UNL1        0.2026
     16 C           9.6690   -0.5250    0.0000 C.3     1  UNL1        0.1287
     17 C           9.3270    0.4147    0.0000 C.3     1  UNL1        0.1257
     18 C           7.9777   -0.2142    0.0000 C.3     1  UNL1        0.1359
     19 C           5.8336    1.0038    0.0000 C.3     1  UNL1        0.0099
     20 C           5.2980   -0.9950    0.0000 C.3     1  UNL1       -0.0249
     21 C           8.0681   -2.5296    0.0000 C.2     1  UNL1        0.3431
     22 C           6.0410   -1.6759    0.0000 C.3     1  UNL1       -0.0556
     23 C           4.8254    0.7420    0.0000 C.2     1  UNL1        0.0391
     24 C           6.1385    2.0450    0.0000 C.3     1  UNL1       -0.0013
     25 C           4.5558   -0.2642    0.0000 C.2     1  UNL1       -0.0729
     26 C           6.6570    1.5711    0.0000 C.3     1  UNL1       -0.0548
     27 C           5.3832    2.8240    0.0000 C.3     1  UNL1        0.1321
     28 C           9.5278   -2.5935    0.0000 C.3     1  UNL1        0.1894
     29 C           4.0523    1.5032    0.0000 C.2     1  UNL1        0.3360
     30 C           9.5278   -3.5935    0.0000 C.3     1  UNL1        0.1342
     31 C           5.6532    3.7868    0.0000 C.ar    1  UNL1        0.0304
     32 C          10.3938   -4.0935    0.0000 C.3     1  UNL1        0.1141
     33 C          11.2599   -2.5935    0.0000 C.3     1  UNL1        0.1130
     34 C          11.2599   -3.5935    0.0000 C.3     1  UNL1        0.1119
     35 C           5.0329    4.5712    0.0000 C.ar    1  UNL1       -0.0172
     36 C           6.5909    4.1344    0.0000 C.ar    1  UNL1        0.0983
     37 C          12.1259   -2.0935    0.0000 C.3     1  UNL1        0.0730
     38 C           5.5872    5.4035    0.0000 C.ar    1  UNL1        0.0921
     39 H           7.0462    0.9523    0.0000 H       1  UNL1        0.0352
     40 H           9.8811   -1.1076    0.0000 H       1  UNL1        0.0658
     41 H           9.1150    0.9973    0.0000 H       1  UNL1        0.0660
     42 H           7.6870    0.5846    0.0000 H       1  UNL1        0.0764
     43 H           5.5672   -1.5535    0.0000 H       1  UNL1        0.0314
     44 H           4.7938   -1.3558    0.0000 H       1  UNL1        0.0314
     45 H           6.6399   -1.8363    0.0000 H       1  UNL1        0.0236
     46 H           5.8806   -2.2748    0.0000 H       1  UNL1        0.0236
     47 H           5.4421   -1.5154    0.0000 H       1  UNL1        0.0236
     48 H           6.5032    2.5464    0.0000 H       1  UNL1        0.0313
     49 H           6.6949    1.7715    0.0000 H       1  UNL1        0.0313
     50 H           3.9575   -0.4270    0.0000 H       1  UNL1        0.0577
     51 H           6.3053    2.0817    0.0000 H       1  UNL1        0.0238
     52 H           7.1676    1.9228    0.0000 H       1  UNL1        0.0238
     53 H           7.0088    1.0605    0.0000 H       1  UNL1        0.0238
     54 H           5.9842    2.9764    0.0000 H       1  UNL1        0.0786
     55 H           9.5278   -1.9735    0.0000 H       1  UNL1        0.0938
     56 H           9.5278   -4.2135    0.0000 H       1  UNL1        0.0671
     57 H          10.9308   -4.4035    0.0000 H       1  UNL1        0.0648
     58 H          11.2599   -1.9735    0.0000 H       1  UNL1        0.0647
     59 H          11.7968   -3.2835    0.0000 H       1  UNL1        0.0647
     60 H           4.4134    4.5459    0.0000 H       1  UNL1        0.0653
     61 H           7.1069    3.7907    0.0000 H       1  UNL1        0.1033
     62 H           8.6618   -4.7135    0.0000 H       1  UNL1        0.2101
     63 H          11.7273   -1.6186    0.0000 H       1  UNL1        0.0584
     64 H          12.5244   -1.6186    0.0000 H       1  UNL1        0.0584
     65 H          10.9308   -5.4035    0.0000 H       1  UNL1        0.2100
     66 H           5.3717    5.9849    0.0000 H       1  UNL1        0.1029
     67 H          12.1259   -4.7135    0.0000 H       1  UNL1        0.2100
     68 H          13.5288   -2.2835    0.0000 H       1  UNL1        0.2095
@<TRIPOS>BOND
     1    16     1    1
     2    17     1    1
     3     2    18    1
     4     2    21    1
     5    15     3    1
     6    28     3    1
     7     4    21    2
     8     5    27    1
     9     5    29    1
    10     6    28    1
    11     6    33    1
    12     7    29    2
    13    30     8    1
    14     8    62    1
    15    32     9    1
    16     9    65    1
    17    34    10    1
    18    10    67    1
    19    11    36   ar
    20    11    38   ar
    21    12    37    1
    22    12    68    1
    23    13    14    1
    24    13    15    1
    25    13    20    1
    26    13    22    1
    27    14    18    1
    28    14    19    1
    29    14    39    1
    30    15    16    1
    31    15    21    1
    32    16    17    1
    33    16    40    1
    34    17    18    1
    35    17    41    1
    36    18    42    1
    37    19    23    1
    38    19    24    1
    39    19    26    1
    40    20    25    1
    41    20    43    1
    42    20    44    1
    43    22    45    1
    44    22    46    1
    45    22    47    1
    46    23    25    2
    47    23    29    1
    48    24    27    1
    49    24    48    1
    50    24    49    1
    51    25    50    1
    52    26    51    1
    53    26    52    1
    54    26    53    1
    55    27    31    1
    56    27    54    1
    57    28    30    1
    58    28    55    1
    59    30    32    1
    60    30    56    1
    61    31    35   ar
    62    31    36   ar
    63    32    34    1
    64    32    57    1
    65    33    34    1
    66    33    37    1
    67    33    58    1
    68    34    59    1
    69    35    38   ar
    70    35    60    1
    71    36    61    1
    72    37    63    1
    73    37    64    1
    74    38    66    1
