@<TRIPOS>MOLECULE
IMPHY010574
 47 48 0 0 0
SMALL
GASTEIGER

@<TRIPOS>ATOM
      1 O           4.2690   -0.9050    0.0000 O.3     1  UNL1       -0.3405
      2 O           6.0010   -0.9050    0.0000 O.3     1  UNL1       -0.3457
      3 O           4.2690   -3.9050    0.0000 O.3     1  UNL1       -0.3864
      4 O           2.5369   -2.9050    0.0000 O.3     1  UNL1       -0.3865
      5 O           6.0010   -2.9050    0.0000 O.3     1  UNL1       -0.3841
      6 O           2.5369    0.0950    0.0000 O.3     1  UNL1       -0.3924
      7 O          10.3312    3.5950    0.0000 O.3     1  UNL1       -0.5068
      8 C           4.2690   -2.9050    0.0000 C.3     1  UNL1        0.1141
      9 C           3.4030   -2.4050    0.0000 C.3     1  UNL1        0.1119
     10 C           5.1350   -2.4050    0.0000 C.3     1  UNL1        0.1341
     11 C           3.4030   -1.4050    0.0000 C.3     1  UNL1        0.1130
     12 C           5.1350   -1.4050    0.0000 C.3     1  UNL1        0.1882
     13 C           2.5369   -0.9050    0.0000 C.3     1  UNL1        0.0730
     14 C           6.0010    0.0950    0.0000 C.3     1  UNL1        0.0593
     15 C           6.8671    0.5950    0.0000 C.3     1  UNL1       -0.0228
     16 C           6.8671    1.5950    0.0000 C.3     1  UNL1       -0.0253
     17 C           5.1350    0.5950    0.0000 C.3     1  UNL1       -0.0386
     18 C           7.7331    2.0950    0.0000 C.ar    1  UNL1       -0.0471
     19 C           8.5991    1.5950    0.0000 C.ar    1  UNL1       -0.0551
     20 C           7.7331    3.0950    0.0000 C.ar    1  UNL1       -0.0551
     21 C           9.4651    2.0950    0.0000 C.ar    1  UNL1       -0.0199
     22 C           8.5991    3.5950    0.0000 C.ar    1  UNL1       -0.0199
     23 C           9.4651    3.0950    0.0000 C.ar    1  UNL1        0.1169
     24 H           4.8059   -3.2150    0.0000 H       1  UNL1        0.0648
     25 H           3.4030   -3.0250    0.0000 H       1  UNL1        0.0647
     26 H           5.6720   -2.0950    0.0000 H       1  UNL1        0.0671
     27 H           3.4030   -0.7850    0.0000 H       1  UNL1        0.0647
     28 H           5.1350   -0.7850    0.0000 H       1  UNL1        0.0937
     29 H           1.9264   -0.7973    0.0000 H       1  UNL1        0.0584
     30 H           2.3249   -1.4876    0.0000 H       1  UNL1        0.0584
     31 H           6.5380   -0.2150    0.0000 H       1  UNL1        0.0594
     32 H           7.0791    0.0124    0.0000 H       1  UNL1        0.0293
     33 H           7.4776    0.7027    0.0000 H       1  UNL1        0.0293
     34 H           3.7320   -4.2150    0.0000 H       1  UNL1        0.2100
     35 H           2.0000   -2.5950    0.0000 H       1  UNL1        0.2100
     36 H           6.5380   -2.5950    0.0000 H       1  UNL1        0.2101
     37 H           6.6550    2.1776    0.0000 H       1  UNL1        0.0314
     38 H           6.2565    1.4873    0.0000 H       1  UNL1        0.0314
     39 H           5.4450    1.1319    0.0000 H       1  UNL1        0.0255
     40 H           4.5981    0.9050    0.0000 H       1  UNL1        0.0255
     41 H           4.8250    0.0581    0.0000 H       1  UNL1        0.0255
     42 H           2.0000    0.4050    0.0000 H       1  UNL1        0.2095
     43 H           8.5991    0.9750    0.0000 H       1  UNL1        0.0621
     44 H           7.1962    3.4050    0.0000 H       1  UNL1        0.0621
     45 H          10.0021    1.7850    0.0000 H       1  UNL1        0.0654
     46 H           8.5991    4.2150    0.0000 H       1  UNL1        0.0654
     47 H          10.3312    4.2150    0.0000 H       1  UNL1        0.2921
@<TRIPOS>BOND
     1     1    11    1
     2     1    12    1
     3    12     2    1
     4    14     2    1
     5     8     3    1
     6     3    34    1
     7     9     4    1
     8     4    35    1
     9    10     5    1
    10     5    36    1
    11     6    13    1
    12     6    42    1
    13     7    23    1
    14     7    47    1
    15     8     9    1
    16     8    10    1
    17     8    24    1
    18     9    11    1
    19     9    25    1
    20    10    12    1
    21    10    26    1
    22    11    13    1
    23    11    27    1
    24    12    28    1
    25    13    29    1
    26    13    30    1
    27    14    15    1
    28    14    17    1
    29    14    31    1
    30    15    16    1
    31    15    32    1
    32    15    33    1
    33    16    18    1
    34    16    37    1
    35    16    38    1
    36    17    39    1
    37    17    40    1
    38    17    41    1
    39    18    19   ar
    40    18    20   ar
    41    19    21   ar
    42    19    43    1
    43    20    22   ar
    44    20    44    1
    45    21    23   ar
    46    21    45    1
    47    22    23   ar
    48    22    46    1
