@<TRIPOS>MOLECULE
IMPHY002953
 59 58 0 0 0
SMALL
GASTEIGER

@<TRIPOS>ATOM
      1 O           3.7320    0.7500    0.0000 O.3     1  UNL1       -0.4649
      2 O           4.5981   -0.7500    0.0000 O.2     1  UNL1       -0.2509
      3 C          11.5263    0.2500    0.0000 C.3     1  UNL1       -0.0531
      4 C          12.3923    0.7500    0.0000 C.3     1  UNL1       -0.0531
      5 C          10.6603    0.7500    0.0000 C.3     1  UNL1       -0.0531
      6 C          13.2583    0.2500    0.0000 C.3     1  UNL1       -0.0531
      7 C           9.7942    0.2500    0.0000 C.3     1  UNL1       -0.0531
      8 C          14.1244    0.7500    0.0000 C.3     1  UNL1       -0.0531
      9 C           8.9282    0.7500    0.0000 C.3     1  UNL1       -0.0531
     10 C          14.9904    0.2500    0.0000 C.3     1  UNL1       -0.0531
     11 C           8.0622    0.2500    0.0000 C.3     1  UNL1       -0.0530
     12 C          15.8564    0.7500    0.0000 C.3     1  UNL1       -0.0531
     13 C           7.1962    0.7500    0.0000 C.3     1  UNL1       -0.0526
     14 C          16.7224    0.2500    0.0000 C.3     1  UNL1       -0.0533
     15 C           6.3301    0.2500    0.0000 C.3     1  UNL1       -0.0430
     16 C          17.5885    0.7500    0.0000 C.3     1  UNL1       -0.0559
     17 C           5.4641    0.7500    0.0000 C.3     1  UNL1        0.0449
     18 C          18.4545    0.2500    0.0000 C.3     1  UNL1       -0.0653
     19 C           4.5981    0.2500    0.0000 C.2     1  UNL1        0.3071
     20 C           2.8660    0.2500    0.0000 C.3     1  UNL1        0.0896
     21 C           2.0000    0.7500    0.0000 C.3     1  UNL1       -0.0306
     22 H          11.1278   -0.2249    0.0000 H       1  UNL1        0.0265
     23 H          11.9248   -0.2249    0.0000 H       1  UNL1        0.0265
     24 H          12.7908    1.2250    0.0000 H       1  UNL1        0.0265
     25 H          11.9938    1.2250    0.0000 H       1  UNL1        0.0265
     26 H          11.0588    1.2250    0.0000 H       1  UNL1        0.0265
     27 H          10.2617    1.2250    0.0000 H       1  UNL1        0.0265
     28 H          12.8598   -0.2249    0.0000 H       1  UNL1        0.0265
     29 H          13.6569   -0.2249    0.0000 H       1  UNL1        0.0265
     30 H           9.3957   -0.2249    0.0000 H       1  UNL1        0.0265
     31 H          10.1928   -0.2249    0.0000 H       1  UNL1        0.0265
     32 H          14.5229    1.2250    0.0000 H       1  UNL1        0.0265
     33 H          13.7258    1.2250    0.0000 H       1  UNL1        0.0265
     34 H           9.3267    1.2250    0.0000 H       1  UNL1        0.0265
     35 H           8.5297    1.2250    0.0000 H       1  UNL1        0.0265
     36 H          14.5919   -0.2249    0.0000 H       1  UNL1        0.0265
     37 H          15.3889   -0.2249    0.0000 H       1  UNL1        0.0265
     38 H           7.6636   -0.2249    0.0000 H       1  UNL1        0.0265
     39 H           8.4607   -0.2249    0.0000 H       1  UNL1        0.0265
     40 H          16.2549    1.2250    0.0000 H       1  UNL1        0.0265
     41 H          15.4579    1.2250    0.0000 H       1  UNL1        0.0265
     42 H           7.5947    1.2250    0.0000 H       1  UNL1        0.0265
     43 H           6.7976    1.2250    0.0000 H       1  UNL1        0.0265
     44 H          16.3239   -0.2249    0.0000 H       1  UNL1        0.0265
     45 H          17.1210   -0.2249    0.0000 H       1  UNL1        0.0265
     46 H           5.9316   -0.2249    0.0000 H       1  UNL1        0.0270
     47 H           6.7287   -0.2249    0.0000 H       1  UNL1        0.0270
     48 H          17.9870    1.2250    0.0000 H       1  UNL1        0.0263
     49 H          17.1899    1.2250    0.0000 H       1  UNL1        0.0263
     50 H           5.8626    1.2250    0.0000 H       1  UNL1        0.0377
     51 H           5.0656    1.2250    0.0000 H       1  UNL1        0.0377
     52 H          18.1445   -0.2869    0.0000 H       1  UNL1        0.0230
     53 H          18.9914   -0.0600    0.0000 H       1  UNL1        0.0230
     54 H          18.7645    0.7869    0.0000 H       1  UNL1        0.0230
     55 H           2.4675   -0.2249    0.0000 H       1  UNL1        0.0694
     56 H           3.2646   -0.2249    0.0000 H       1  UNL1        0.0694
     57 H           2.3100    1.2869    0.0000 H       1  UNL1        0.0262
     58 H           1.4631    1.0600    0.0000 H       1  UNL1        0.0262
     59 H           1.6900    0.2131    0.0000 H       1  UNL1        0.0262
@<TRIPOS>BOND
     1     1    19    1
     2     1    20    1
     3     2    19    2
     4     3     4    1
     5     3     5    1
     6     3    22    1
     7     3    23    1
     8     4     6    1
     9     4    24    1
    10     4    25    1
    11     5     7    1
    12     5    26    1
    13     5    27    1
    14     6     8    1
    15     6    28    1
    16     6    29    1
    17     7     9    1
    18     7    30    1
    19     7    31    1
    20     8    10    1
    21     8    32    1
    22     8    33    1
    23     9    11    1
    24     9    34    1
    25     9    35    1
    26    10    12    1
    27    10    36    1
    28    10    37    1
    29    11    13    1
    30    11    38    1
    31    11    39    1
    32    12    14    1
    33    12    40    1
    34    12    41    1
    35    13    15    1
    36    13    42    1
    37    13    43    1
    38    14    16    1
    39    14    44    1
    40    14    45    1
    41    15    17    1
    42    15    46    1
    43    15    47    1
    44    16    18    1
    45    16    48    1
    46    16    49    1
    47    17    19    1
    48    17    50    1
    49    17    51    1
    50    18    52    1
    51    18    53    1
    52    18    54    1
    53    20    21    1
    54    20    55    1
    55    20    56    1
    56    21    57    1
    57    21    58    1
    58    21    59    1
