@<TRIPOS>MOLECULE
IMPHY015789
 38 39 0 0 0
SMALL
GASTEIGER

@<TRIPOS>ATOM
      1 O           4.3723   -1.7514    0.0000 O.3     1  UNL1       -0.4571
      2 O           2.8495    1.2204    0.0000 O.3     1  UNL1       -0.3870
      3 O           2.8836   -2.7204    0.0000 O.2     1  UNL1       -0.2453
      4 C           3.7155   -0.2796    0.0000 C.3     1  UNL1        0.0572
      5 C           4.5816   -0.7796    0.0000 C.3     1  UNL1        0.1166
      6 C           3.7155    0.7204    0.0000 C.3     1  UNL1        0.0840
      7 C           5.4476   -0.2796    0.0000 C.3     1  UNL1        0.0060
      8 C           2.9785   -0.9466    0.0000 C.2     1  UNL1        0.0389
      9 C           5.4476    0.7204    0.0000 C.2     1  UNL1       -0.0730
     10 C           4.5816    1.2204    0.0000 C.2     1  UNL1       -0.0562
     11 C           3.3836   -1.8544    0.0000 C.2     1  UNL1        0.3354
     12 C           4.5816    2.2204    0.0000 C.2     1  UNL1       -0.0738
     13 C           5.4476    2.7204    0.0000 C.3     1  UNL1       -0.0285
     14 C           6.3136    2.2204    0.0000 C.3     1  UNL1       -0.0308
     15 C           6.3136    1.2204    0.0000 C.2     1  UNL1       -0.0846
     16 C           2.0000   -0.7404    0.0000 C.2     1  UNL1       -0.0882
     17 C           3.9910    1.2506    0.0000 C.3     1  UNL1       -0.0437
     18 C           3.7155    2.7204    0.0000 C.3     1  UNL1       -0.0437
     19 H           3.1488   -0.0281    0.0000 H       1  UNL1        0.0415
     20 H           5.0827   -1.1446    0.0000 H       1  UNL1        0.0744
     21 H           3.7155    1.3404    0.0000 H       1  UNL1        0.0645
     22 H           5.6596   -0.8622    0.0000 H       1  UNL1        0.0346
     23 H           6.0582   -0.1719    0.0000 H       1  UNL1        0.0346
     24 H           5.1921    1.3281    0.0000 H       1  UNL1        0.0597
     25 H           5.8461    3.1954    0.0000 H       1  UNL1        0.0313
     26 H           5.0490    3.1954    0.0000 H       1  UNL1        0.0313
     27 H           6.9242    2.1128    0.0000 H       1  UNL1        0.0310
     28 H           6.5256    2.8031    0.0000 H       1  UNL1        0.0310
     29 H           6.8505    0.9104    0.0000 H       1  UNL1        0.0572
     30 H           1.8074   -0.1511    0.0000 H       1  UNL1        0.0540
     31 H           1.5859   -1.2019    0.0000 H       1  UNL1        0.0540
     32 H           2.3126    0.9104    0.0000 H       1  UNL1        0.2102
     33 H           4.2031    1.8332    0.0000 H       1  UNL1        0.0274
     34 H           3.4084    1.4626    0.0000 H       1  UNL1        0.0274
     35 H           3.7790    0.6680    0.0000 H       1  UNL1        0.0274
     36 H           4.0255    3.2574    0.0000 H       1  UNL1        0.0274
     37 H           3.1786    3.0304    0.0000 H       1  UNL1        0.0274
     38 H           3.4055    2.1835    0.0000 H       1  UNL1        0.0274
@<TRIPOS>BOND
     1     1     5    1
     2     1    11    1
     3     6     2    1
     4     2    32    1
     5     3    11    2
     6     4     5    1
     7     4     6    1
     8     4     8    1
     9     4    19    1
    10     5     7    1
    11     5    20    1
    12     6    10    1
    13     6    21    1
    14     7     9    1
    15     7    22    1
    16     7    23    1
    17     8    11    1
    18     8    16    2
    19     9    15    2
    20     9    17    1
    21    10    12    2
    22    10    24    1
    23    12    13    1
    24    12    18    1
    25    13    14    1
    26    13    25    1
    27    13    26    1
    28    14    15    1
    29    14    27    1
    30    14    28    1
    31    15    29    1
    32    16    30    1
    33    16    31    1
    34    17    33    1
    35    17    34    1
    36    17    35    1
    37    18    36    1
    38    18    37    1
    39    18    38    1
