@<TRIPOS>MOLECULE
IMPHY010659
 33 35 0 0 0
SMALL
GASTEIGER

@<TRIPOS>ATOM
      1 C         168.3397 -236.1250    0.0000 C.ar    1  UNL1        0.0109
      2 C         168.3397 -246.1250    0.0000 C.ar    1  UNL1        0.0383
      3 C         177.0000 -251.1250    0.0000 C.ar    1  UNL1        0.1752
      4 C         185.6602 -246.1250    0.0000 C.ar    1  UNL1        0.2060
      5 C         185.6602 -236.1250    0.0000 C.ar    1  UNL1        0.1752
      6 C         177.0000 -231.1250    0.0000 C.ar    1  UNL1        0.0383
      7 O         194.3205 -231.1250    0.0000 O.3     1  UNL1       -0.4683
      8 C         202.9808 -236.1250    0.0000 C.3     1  UNL1        0.2526
      9 O         194.3205 -251.1250    0.0000 O.3     1  UNL1       -0.4654
     10 C         194.3205 -261.1250    0.0000 C.3     1  UNL1        0.2528
     11 O         177.0000 -261.1250    0.0000 O.3     1  UNL1       -0.4683
     12 C         168.3397 -266.1250    0.0000 C.3     1  UNL1        0.2526
     13 C         159.6795 -231.1250    0.0000 C.3     1  UNL1        0.1406
     14 C         157.0913 -221.4657    0.0000 C.3     1  UNL1        0.0741
     15 C         147.1050 -221.4657    0.0000 C.3     1  UNL1        0.0967
     16 C         143.5213 -231.1250    0.0000 C.3     1  UNL1        0.1503
     17 O         151.2928 -237.4182    0.0000 O.3     1  UNL1       -0.3513
     18 C         163.1789 -213.5322    0.0000 C.3     1  UNL1        0.1853
     19 O         173.1789 -213.5322    0.0000 O.3     1  UNL1       -0.2203
     20 C         141.3947 -213.2565    0.0000 C.2     1  UNL1        0.1754
     21 C         131.3947 -213.2565    0.0000 C.ar    1  UNL1        0.0410
     22 C         126.3947 -204.5962    0.0000 C.ar    1  UNL1        0.0431
     23 C         116.3947 -204.5962    0.0000 C.ar    1  UNL1        0.1755
     24 C         111.3947 -213.2565    0.0000 C.ar    1  UNL1        0.2061
     25 C         116.3947 -221.9167    0.0000 C.ar    1  UNL1        0.1755
     26 C         126.3947 -221.9167    0.0000 C.ar    1  UNL1        0.0431
     27 O         111.3947 -195.9360    0.0000 O.3     1  UNL1       -0.4683
     28 C         116.3947 -187.2757    0.0000 C.3     1  UNL1        0.2526
     29 O         101.3947 -213.2565    0.0000 O.3     1  UNL1       -0.4654
     30 C          96.3947 -204.5962    0.0000 C.3     1  UNL1        0.2528
     31 O         111.3947 -230.5770    0.0000 O.3     1  UNL1       -0.4683
     32 C         101.3947 -230.5770    0.0000 C.3     1  UNL1        0.2526
     33 O         146.0259 -204.3935    0.0000 O.2     1  UNL1       -0.2913
@<TRIPOS>BOND
     1     1     2   ar
     2     2     3   ar
     3     3     4   ar
     4     3    11    1
     5     4     5   ar
     6     4     9    1
     7     5     6   ar
     8     5     7    1
     9     6     1   ar
    10     7     8    1
    11     9    10    1
    12    11    12    1
    13    13     1    1
    14    13    14    1
    15    14    15    1
    16    14    18    1
    17    15    16    1
    18    15    20    1
    19    16    17    1
    20    17    13    1
    21    18    19    1
    22    20    21    1
    23    20    33    2
    24    21    22   ar
    25    22    23   ar
    26    23    24   ar
    27    23    27    1
    28    24    25   ar
    29    24    29    1
    30    25    26   ar
    31    25    31    1
    32    26    21   ar
    33    27    28    1
    34    29    30    1
    35    31    32    1
