@<TRIPOS>MOLECULE
IMPHY007371
 34 38 0 0 0
SMALL
GASTEIGER

@<TRIPOS>ATOM
      1 O           7.3092    0.2952    0.0000 O.3     1  UNL1       -0.4520
      2 O           7.3092    1.9046    0.0000 O.3     1  UNL1       -0.4526
      3 O           3.7801    3.0968    0.0000 O.2     1  UNL1       -0.2817
      4 O           2.0512    2.1296    0.0000 O.2     1  UNL1       -0.2661
      5 N           2.8816    0.6213    0.0000 N.am    1  UNL1       -0.2672
      6 C           4.6309    0.5999    0.0000 C.ar    1  UNL1        0.0188
      7 C           5.4969    0.0999    0.0000 C.ar    1  UNL1        0.0377
      8 C           3.7209    0.0931    0.0000 C.ar    1  UNL1        0.0454
      9 C           4.6309    1.5999    0.0000 C.ar    1  UNL1        0.0401
     10 C           5.5130   -0.9416    0.0000 C.ar    1  UNL1       -0.0064
     11 C           6.3629    0.5999    0.0000 C.ar    1  UNL1        0.1746
     12 C           4.6149   -1.4694    0.0000 C.ar    1  UNL1       -0.0154
     13 C           3.7129   -0.9485    0.0000 C.ar    1  UNL1       -0.0319
     14 C           6.3629    1.5999    0.0000 C.ar    1  UNL1        0.1676
     15 C           5.4969    2.0999    0.0000 C.ar    1  UNL1       -0.0045
     16 C           3.7727    2.0968    0.0000 C.2     1  UNL1        0.2485
     17 C           2.9072    1.6127    0.0000 C.2     1  UNL1        0.2910
     18 C           6.4649   -1.4622    0.0000 C.ar    1  UNL1       -0.0533
     19 C           4.6066   -2.5543    0.0000 C.ar    1  UNL1       -0.0540
     20 C           7.8928    1.0999    0.0000 C.3     1  UNL1        0.2333
     21 C           2.0000    0.1492    0.0000 C.3     1  UNL1        0.0087
     22 C           6.4816   -2.5471    0.0000 C.ar    1  UNL1       -0.0611
     23 C           5.5462   -3.0968    0.0000 C.ar    1  UNL1       -0.0612
     24 H           3.1747   -1.2565    0.0000 H       1  UNL1        0.0642
     25 H           5.4969    2.7199    0.0000 H       1  UNL1        0.0663
     26 H           6.9958   -1.1419    0.0000 H       1  UNL1        0.0624
     27 H           4.0684   -2.8622    0.0000 H       1  UNL1        0.0624
     28 H           8.3536    0.6852    0.0000 H       1  UNL1        0.1166
     29 H           8.3536    1.5146    0.0000 H       1  UNL1        0.1166
     30 H           1.7073    0.6958    0.0000 H       1  UNL1        0.0433
     31 H           1.4534   -0.1434    0.0000 H       1  UNL1        0.0433
     32 H           2.2927   -0.3973    0.0000 H       1  UNL1        0.0433
     33 H           7.0221   -2.8509    0.0000 H       1  UNL1        0.0618
     34 H           5.5486   -3.7168    0.0000 H       1  UNL1        0.0618
@<TRIPOS>BOND
     1     1    11    1
     2     1    20    1
     3     2    14    1
     4     2    20    1
     5     3    16    2
     6     4    17    2
     7     5     8    1
     8     5    17   am
     9     5    21    1
    10     6     7   ar
    11     6     8   ar
    12     6     9   ar
    13     7    10   ar
    14     7    11   ar
    15     8    13   ar
    16     9    15   ar
    17     9    16    1
    18    10    12   ar
    19    10    18   ar
    20    11    14   ar
    21    12    13   ar
    22    12    19   ar
    23    13    24    1
    24    14    15   ar
    25    15    25    1
    26    16    17    1
    27    18    22   ar
    28    18    26    1
    29    19    23   ar
    30    19    27    1
    31    20    28    1
    32    20    29    1
    33    21    30    1
    34    21    31    1
    35    21    32    1
    36    22    23   ar
    37    22    33    1
    38    23    34    1
