@<TRIPOS>MOLECULE
IMPHY000319
 81 85 0 0 0
SMALL
GASTEIGER

@<TRIPOS>ATOM
      1 O           2.0000   -2.6236    0.0000 O.2     1  UNL1       -0.2971
      2 C           7.3931    0.4288    0.0000 C.3     1  UNL1       -0.0228
      3 C           7.3931   -0.5712    0.0000 C.3     1  UNL1       -0.0230
      4 C           6.5271   -1.0712    0.0000 C.3     1  UNL1       -0.0294
      5 C           8.2870    0.9634    0.0000 C.3     1  UNL1       -0.0267
      6 C           5.6610   -0.5712    0.0000 C.3     1  UNL1       -0.0254
      7 C           9.1931    0.4496    0.0000 C.3     1  UNL1       -0.0284
      8 C           6.5271    0.9288    0.0000 C.3     1  UNL1       -0.0463
      9 C           4.7510   -1.0781    0.0000 C.3     1  UNL1       -0.0289
     10 C           8.2870   -1.1059    0.0000 C.3     1  UNL1       -0.0463
     11 C           5.6610    0.4288    0.0000 C.3     1  UNL1       -0.0466
     12 C           8.4971    1.9774    0.0000 C.3     1  UNL1       -0.0348
     13 C           9.1931   -0.5920    0.0000 C.3     1  UNL1       -0.0468
     14 C           4.7430   -2.1197    0.0000 C.3     1  UNL1       -0.0195
     15 C           6.5431   -2.1127    0.0000 C.3     1  UNL1       -0.0487
     16 C           9.9554    1.1504    0.0000 C.3     1  UNL1       -0.0471
     17 C           5.6451   -2.6405    0.0000 C.3     1  UNL1       -0.0464
     18 C           9.5262    2.0926    0.0000 C.3     1  UNL1       -0.0492
     19 C           7.3931    1.4288    0.0000 C.3     1  UNL1       -0.0588
     20 C           7.3931   -1.5712    0.0000 C.3     1  UNL1       -0.0588
     21 C           4.7950   -0.0712    0.0000 C.3     1  UNL1       -0.0590
     22 C           3.8242   -0.5140    0.0000 C.3     1  UNL1       -0.0425
     23 C          10.0629   -0.0437    0.0000 C.3     1  UNL1       -0.0593
     24 C           3.8076   -2.6694    0.0000 C.3     1  UNL1        0.0203
     25 C           7.8236    2.7165    0.0000 C.3     1  UNL1       -0.0436
     26 C           4.7353   -3.1196    0.0000 C.3     1  UNL1       -0.0587
     27 C           2.8763   -1.0419    0.0000 C.3     1  UNL1        0.0064
     28 C           2.8680   -2.1269    0.0000 C.2     1  UNL1        0.1367
     29 C           3.8114   -3.6694    0.0000 C.3     1  UNL1       -0.0552
     30 C           8.1269    3.6694    0.0000 C.3     1  UNL1       -0.0624
     31 C           6.8467    2.5027    0.0000 C.3     1  UNL1       -0.0624
     32 H           7.2664   -1.4905    0.0000 H       1  UNL1        0.0312
     33 H           9.0613    1.3141    0.0000 H       1  UNL1        0.0314
     34 H           6.9256    1.4037    0.0000 H       1  UNL1        0.0271
     35 H           6.1285    1.4037    0.0000 H       1  UNL1        0.0271
     36 H           5.4822   -1.5116    0.0000 H       1  UNL1        0.0312
     37 H           7.8824   -1.5757    0.0000 H       1  UNL1        0.0271
     38 H           8.6806   -1.5849    0.0000 H       1  UNL1        0.0271
     39 H           5.4490    1.0114    0.0000 H       1  UNL1        0.0271
     40 H           5.0504    0.3211    0.0000 H       1  UNL1        0.0271
     41 H           8.7156    2.5576    0.0000 H       1  UNL1        0.0306
     42 H           9.4022   -1.1757    0.0000 H       1  UNL1        0.0271
     43 H           9.8040   -0.4859    0.0000 H       1  UNL1        0.0271
     44 H           6.7612   -2.6931    0.0000 H       1  UNL1        0.0268
     45 H           7.1523   -1.9972    0.0000 H       1  UNL1        0.0268
     46 H          10.3247    0.6523    0.0000 H       1  UNL1        0.0271
     47 H          10.4895    1.4652    0.0000 H       1  UNL1        0.0271
     48 H           5.2478   -3.1164    0.0000 H       1  UNL1        0.0271
     49 H           6.0460   -3.1134    0.0000 H       1  UNL1        0.0271
     50 H          10.1143    2.2890    0.0000 H       1  UNL1        0.0268
     51 H           9.3928    2.6981    0.0000 H       1  UNL1        0.0268
     52 H           8.0131    1.4288    0.0000 H       1  UNL1        0.0235
     53 H           7.3931    2.0488    0.0000 H       1  UNL1        0.0235
     54 H           6.7731    1.4288    0.0000 H       1  UNL1        0.0235
     55 H           6.7731   -1.5712    0.0000 H       1  UNL1        0.0235
     56 H           7.3931   -2.1912    0.0000 H       1  UNL1        0.0235
     57 H           8.0131   -1.5712    0.0000 H       1  UNL1        0.0235
     58 H           5.1050    0.4657    0.0000 H       1  UNL1        0.0235
     59 H           4.2581    0.2388    0.0000 H       1  UNL1        0.0235
     60 H           4.4850   -0.6082    0.0000 H       1  UNL1        0.0235
     61 H           4.2324   -0.0473    0.0000 H       1  UNL1        0.0272
     62 H           3.4343   -0.0319    0.0000 H       1  UNL1        0.0272
     63 H           9.7571   -0.5830    0.0000 H       1  UNL1        0.0235
     64 H          10.6023   -0.3496    0.0000 H       1  UNL1        0.0235
     65 H          10.3688    0.4956    0.0000 H       1  UNL1        0.0235
     66 H           4.3463   -2.9763    0.0000 H       1  UNL1        0.0380
     67 H           7.6355    2.1257    0.0000 H       1  UNL1        0.0298
     68 H           4.1153   -3.1149    0.0000 H       1  UNL1        0.0235
     69 H           4.7305   -3.7396    0.0000 H       1  UNL1        0.0235
     70 H           5.3553   -3.1244    0.0000 H       1  UNL1        0.0235
     71 H           2.6718   -0.4566    0.0000 H       1  UNL1        0.0342
     72 H           2.2647   -1.1433    0.0000 H       1  UNL1        0.0342
     73 H           3.1914   -3.6718    0.0000 H       1  UNL1        0.0237
     74 H           3.8138   -4.2894    0.0000 H       1  UNL1        0.0237
     75 H           4.4314   -3.6670    0.0000 H       1  UNL1        0.0237
     76 H           6.7142    3.1084    0.0000 H       1  UNL1        0.0232
     77 H           8.7177    3.4813    0.0000 H       1  UNL1        0.0232
     78 H           8.3150    4.2602    0.0000 H       1  UNL1        0.0232
     79 H           7.5361    3.8574    0.0000 H       1  UNL1        0.0232
     80 H           6.2410    2.3702    0.0000 H       1  UNL1        0.0232
     81 H           6.9792    1.8971    0.0000 H       1  UNL1        0.0232
@<TRIPOS>BOND
     1     1    28    2
     2     2     3    1
     3     2     5    1
     4     2     8    1
     5     2    19    1
     6     3     4    1
     7     3    10    1
     8     3    20    1
     9     4     6    1
    10     4    15    1
    11     4    32    1
    12     5     7    1
    13     5    12    1
    14     5    33    1
    15     6     9    1
    16     6    11    1
    17     6    21    1
    18     7    13    1
    19     7    16    1
    20     7    23    1
    21     8    11    1
    22     8    34    1
    23     8    35    1
    24     9    14    1
    25     9    22    1
    26     9    36    1
    27    10    13    1
    28    10    37    1
    29    10    38    1
    30    11    39    1
    31    11    40    1
    32    12    18    1
    33    12    25    1
    34    12    41    1
    35    13    42    1
    36    13    43    1
    37    14    17    1
    38    14    24    1
    39    14    26    1
    40    15    17    1
    41    15    44    1
    42    15    45    1
    43    16    18    1
    44    16    46    1
    45    16    47    1
    46    17    48    1
    47    17    49    1
    48    18    50    1
    49    18    51    1
    50    19    52    1
    51    19    53    1
    52    19    54    1
    53    20    55    1
    54    20    56    1
    55    20    57    1
    56    21    58    1
    57    21    59    1
    58    21    60    1
    59    22    27    1
    60    22    61    1
    61    22    62    1
    62    23    63    1
    63    23    64    1
    64    23    65    1
    65    24    28    1
    66    24    29    1
    67    24    66    1
    68    25    30    1
    69    25    31    1
    70    25    67    1
    71    26    68    1
    72    26    69    1
    73    26    70    1
    74    27    28    1
    75    27    71    1
    76    27    72    1
    77    29    73    1
    78    29    74    1
    79    29    75    1
    80    30    77    1
    81    30    78    1
    82    30    79    1
    83    31    76    1
    84    31    80    1
    85    31    81    1
