@<TRIPOS>MOLECULE
IMPHY015887
 69 68 0 0 0
SMALL
GASTEIGER

@<TRIPOS>ATOM
      1 O           6.3301   -2.2500    0.0000 O.3     1  UNL1       -0.4646
      2 O           7.1962   -3.7500    0.0000 O.2     1  UNL1       -0.2509
      3 C          10.6603   -2.7500    0.0000 C.3     1  UNL1       -0.0530
      4 C          11.5263   -2.2500    0.0000 C.3     1  UNL1       -0.0528
      5 C          16.7224    0.7500    0.0000 C.3     1  UNL1       -0.0530
      6 C          15.8564    0.2500    0.0000 C.3     1  UNL1       -0.0528
      7 C           9.7942   -2.2500    0.0000 C.3     1  UNL1       -0.0526
      8 C          16.7224    1.7500    0.0000 C.3     1  UNL1       -0.0531
      9 C          12.3923   -2.7500    0.0000 C.3     1  UNL1       -0.0496
     10 C          15.8564   -0.7500    0.0000 C.3     1  UNL1       -0.0496
     11 C           8.9282   -2.7500    0.0000 C.3     1  UNL1       -0.0430
     12 C          17.5885    2.2500    0.0000 C.3     1  UNL1       -0.0533
     13 C          13.2583   -2.2500    0.0000 C.3     1  UNL1       -0.0348
     14 C          14.9904   -1.2500    0.0000 C.3     1  UNL1       -0.0348
     15 C           8.0622   -2.2500    0.0000 C.3     1  UNL1        0.0449
     16 C          17.5885    3.2500    0.0000 C.3     1  UNL1       -0.0559
     17 C          14.1244   -2.7500    0.0000 C.2     1  UNL1       -0.0879
     18 C          14.9904   -2.2500    0.0000 C.2     1  UNL1       -0.0879
     19 C          18.4545    3.7500    0.0000 C.3     1  UNL1       -0.0653
     20 C           7.1962   -2.7500    0.0000 C.2     1  UNL1        0.3071
     21 C           4.5981   -2.2500    0.0000 C.3     1  UNL1       -0.0185
     22 C           3.7320   -2.7500    0.0000 C.3     1  UNL1       -0.0502
     23 C           5.4641   -2.7500    0.0000 C.3     1  UNL1        0.0925
     24 C           2.8660   -2.2500    0.0000 C.3     1  UNL1       -0.0558
     25 C           2.0000   -2.7500    0.0000 C.3     1  UNL1       -0.0653
     26 H          10.2617   -3.2250    0.0000 H       1  UNL1        0.0265
     27 H          11.0588   -3.2250    0.0000 H       1  UNL1        0.0265
     28 H          11.9248   -1.7750    0.0000 H       1  UNL1        0.0265
     29 H          11.1278   -1.7750    0.0000 H       1  UNL1        0.0265
     30 H          16.9345    0.1674    0.0000 H       1  UNL1        0.0265
     31 H          17.3330    0.8577    0.0000 H       1  UNL1        0.0265
     32 H          15.6444    0.8326    0.0000 H       1  UNL1        0.0265
     33 H          15.2458    0.1423    0.0000 H       1  UNL1        0.0265
     34 H          10.1928   -1.7750    0.0000 H       1  UNL1        0.0265
     35 H           9.3957   -1.7750    0.0000 H       1  UNL1        0.0265
     36 H          16.5104    2.3326    0.0000 H       1  UNL1        0.0265
     37 H          16.1119    1.6423    0.0000 H       1  UNL1        0.0265
     38 H          11.9938   -3.2250    0.0000 H       1  UNL1        0.0268
     39 H          12.7908   -3.2250    0.0000 H       1  UNL1        0.0268
     40 H          16.0685   -1.3326    0.0000 H       1  UNL1        0.0268
     41 H          16.4670   -0.6423    0.0000 H       1  UNL1        0.0268
     42 H           8.5297   -3.2250    0.0000 H       1  UNL1        0.0270
     43 H           9.3267   -3.2250    0.0000 H       1  UNL1        0.0270
     44 H          17.8005    1.6674    0.0000 H       1  UNL1        0.0265
     45 H          18.1990    2.3577    0.0000 H       1  UNL1        0.0265
     46 H          13.6569   -1.7750    0.0000 H       1  UNL1        0.0307
     47 H          12.8598   -1.7750    0.0000 H       1  UNL1        0.0307
     48 H          14.7783   -0.6674    0.0000 H       1  UNL1        0.0307
     49 H          14.3798   -1.3577    0.0000 H       1  UNL1        0.0307
     50 H           8.4607   -1.7750    0.0000 H       1  UNL1        0.0377
     51 H           7.6636   -1.7750    0.0000 H       1  UNL1        0.0377
     52 H          17.3764    3.8326    0.0000 H       1  UNL1        0.0263
     53 H          16.9779    3.1423    0.0000 H       1  UNL1        0.0263
     54 H          14.1244   -3.3700    0.0000 H       1  UNL1        0.0569
     55 H          15.5273   -2.5600    0.0000 H       1  UNL1        0.0569
     56 H          18.7645    3.2131    0.0000 H       1  UNL1        0.0230
     57 H          18.9914    4.0600    0.0000 H       1  UNL1        0.0230
     58 H          18.1445    4.2869    0.0000 H       1  UNL1        0.0230
     59 H           4.9966   -1.7750    0.0000 H       1  UNL1        0.0298
     60 H           4.1996   -1.7750    0.0000 H       1  UNL1        0.0298
     61 H           3.3335   -3.2250    0.0000 H       1  UNL1        0.0266
     62 H           4.1306   -3.2250    0.0000 H       1  UNL1        0.0266
     63 H           5.0656   -3.2250    0.0000 H       1  UNL1        0.0697
     64 H           5.8626   -3.2250    0.0000 H       1  UNL1        0.0697
     65 H           3.2646   -1.7750    0.0000 H       1  UNL1        0.0263
     66 H           2.4675   -1.7750    0.0000 H       1  UNL1        0.0263
     67 H           1.6900   -2.2131    0.0000 H       1  UNL1        0.0230
     68 H           1.4631   -3.0600    0.0000 H       1  UNL1        0.0230
     69 H           2.3100   -3.2869    0.0000 H       1  UNL1        0.0230
@<TRIPOS>BOND
     1     1    20    1
     2     1    23    1
     3     2    20    2
     4     3     4    1
     5     3     7    1
     6     3    26    1
     7     3    27    1
     8     4     9    1
     9     4    28    1
    10     4    29    1
    11     5     6    1
    12     5     8    1
    13     5    30    1
    14     5    31    1
    15     6    10    1
    16     6    32    1
    17     6    33    1
    18     7    11    1
    19     7    34    1
    20     7    35    1
    21     8    12    1
    22     8    36    1
    23     8    37    1
    24     9    13    1
    25     9    38    1
    26     9    39    1
    27    10    14    1
    28    10    40    1
    29    10    41    1
    30    11    15    1
    31    11    42    1
    32    11    43    1
    33    12    16    1
    34    12    44    1
    35    12    45    1
    36    13    17    1
    37    13    46    1
    38    13    47    1
    39    14    18    1
    40    14    48    1
    41    14    49    1
    42    15    20    1
    43    15    50    1
    44    15    51    1
    45    16    19    1
    46    16    52    1
    47    16    53    1
    48    17    18    2
    49    17    54    1
    50    18    55    1
    51    19    56    1
    52    19    57    1
    53    19    58    1
    54    21    22    1
    55    21    23    1
    56    21    59    1
    57    21    60    1
    58    22    24    1
    59    22    61    1
    60    22    62    1
    61    23    63    1
    62    23    64    1
    63    24    25    1
    64    24    65    1
    65    24    66    1
    66    25    67    1
    67    25    68    1
    68    25    69    1
