@<TRIPOS>MOLECULE
IMPHY011494
 83 85 0 0 0
SMALL
GASTEIGER

@<TRIPOS>ATOM
      1 O           4.2957   -0.7075    0.0000 O.3     1  UNL1       -0.3886
      2 O          12.1249   -0.0227    0.0000 O.3     1  UNL1       -0.4806
      3 O          12.1449    1.7092    0.0000 O.2     1  UNL1       -0.2510
      4 C           6.5031    1.2371    0.0000 C.3     1  UNL1       -0.0232
      5 C           7.3691    1.7371    0.0000 C.3     1  UNL1       -0.0231
      6 C           8.2351    1.2371    0.0000 C.3     1  UNL1       -0.0292
      7 C           6.5031    0.2371    0.0000 C.3     1  UNL1       -0.0297
      8 C           9.1451    1.7439    0.0000 C.3     1  UNL1       -0.0217
      9 C           5.5568   -0.0677    0.0000 C.3     1  UNL1       -0.0090
     10 C           5.5568    1.5418    0.0000 C.3     1  UNL1       -0.0465
     11 C           8.2351    0.2371    0.0000 C.3     1  UNL1       -0.0489
     12 C           7.3691   -0.2629    0.0000 C.3     1  UNL1       -0.0491
     13 C           7.3530    2.7786    0.0000 C.3     1  UNL1       -0.0463
     14 C           4.9732    0.7371    0.0000 C.3     1  UNL1       -0.0468
     15 C           9.1531    2.7855    0.0000 C.3     1  UNL1       -0.0147
     16 C           8.2511    3.3063    0.0000 C.3     1  UNL1       -0.0455
     17 C           6.1610    2.1768    0.0000 C.3     1  UNL1       -0.0588
     18 C           6.7263    2.5031    0.0000 C.3     1  UNL1       -0.0588
     19 C           5.2462   -1.0182    0.0000 C.3     1  UNL1        0.0667
     20 C          10.1450    1.7324    0.0000 C.3     1  UNL1       -0.0367
     21 C           9.6351    0.8722    0.0000 C.3     1  UNL1       -0.0587
     22 C          10.0211    3.2822    0.0000 C.2     1  UNL1       -0.0761
     23 C           4.9355   -1.9687    0.0000 C.3     1  UNL1       -0.0206
     24 C           6.1967   -1.3288    0.0000 C.3     1  UNL1       -0.0358
     25 C          10.6350    0.8606    0.0000 C.3     1  UNL1        0.0453
     26 C          10.0249    4.2822    0.0000 C.3     1  UNL1       -0.0438
     27 C           3.9570   -2.1749    0.0000 C.3     1  UNL1       -0.0319
     28 C          10.8852    2.7788    0.0000 C.2     1  UNL1       -0.0994
     29 C          11.6349    0.8490    0.0000 C.2     1  UNL1        0.3047
     30 C           3.6464   -3.1254    0.0000 C.2     1  UNL1       -0.0852
     31 C           2.6678   -3.3316    0.0000 C.2     1  UNL1       -0.0796
     32 C           2.3572   -4.2822    0.0000 C.3     1  UNL1       -0.0440
     33 C           2.0000   -2.5873    0.0000 C.3     1  UNL1       -0.0440
     34 H           8.9679    0.8064    0.0000 H       1  UNL1        0.0312
     35 H           6.4131   -0.6082    0.0000 H       1  UNL1        0.0310
     36 H           4.7171   -0.1995    0.0000 H       1  UNL1        0.0331
     37 H           5.8079    2.1087    0.0000 H       1  UNL1        0.0271
     38 H           5.0195    1.8510    0.0000 H       1  UNL1        0.0271
     39 H           8.4472   -0.3455    0.0000 H       1  UNL1        0.0268
     40 H           8.8457    0.3447    0.0000 H       1  UNL1        0.0268
     41 H           6.9706   -0.7379    0.0000 H       1  UNL1        0.0268
     42 H           7.7676   -0.7379    0.0000 H       1  UNL1        0.0268
     43 H           7.1350    3.3590    0.0000 H       1  UNL1        0.0271
     44 H           6.7439    2.6631    0.0000 H       1  UNL1        0.0271
     45 H           4.5124    1.1518    0.0000 H       1  UNL1        0.0269
     46 H           4.5124    0.3223    0.0000 H       1  UNL1        0.0269
     47 H           9.6883    2.4724    0.0000 H       1  UNL1        0.0351
     48 H           8.6484    3.7823    0.0000 H       1  UNL1        0.0271
     49 H           7.8501    3.7792    0.0000 H       1  UNL1        0.0271
     50 H           6.7436    2.3888    0.0000 H       1  UNL1        0.0235
     51 H           5.9490    2.7594    0.0000 H       1  UNL1        0.0235
     52 H           5.5784    1.9647    0.0000 H       1  UNL1        0.0235
     53 H           7.2012    2.9016    0.0000 H       1  UNL1        0.0235
     54 H           6.3278    2.9781    0.0000 H       1  UNL1        0.0235
     55 H           6.2514    2.1046    0.0000 H       1  UNL1        0.0235
     56 H          10.7301    1.9377    0.0000 H       1  UNL1        0.0276
     57 H          10.0445    2.3441    0.0000 H       1  UNL1        0.0276
     58 H           9.0946    0.5684    0.0000 H       1  UNL1        0.0235
     59 H           9.9388    0.3317    0.0000 H       1  UNL1        0.0235
     60 H          10.1756    1.1759    0.0000 H       1  UNL1        0.0235
     61 H           4.9561   -2.5884    0.0000 H       1  UNL1        0.0296
     62 H           5.5493   -2.0560    0.0000 H       1  UNL1        0.0296
     63 H           6.0041   -1.9182    0.0000 H       1  UNL1        0.0257
     64 H           6.7860   -1.5214    0.0000 H       1  UNL1        0.0257
     65 H           6.3893   -0.7395    0.0000 H       1  UNL1        0.0257
     66 H          10.0500    0.6553    0.0000 H       1  UNL1        0.0378
     67 H          10.7356    0.2488    0.0000 H       1  UNL1        0.0378
     68 H           3.8342   -1.1216    0.0000 H       1  UNL1        0.2102
     69 H          10.6449    4.2798    0.0000 H       1  UNL1        0.0274
     70 H          10.0273    4.9022    0.0000 H       1  UNL1        0.0274
     71 H           9.4050    4.2846    0.0000 H       1  UNL1        0.0274
     72 H           3.9364   -1.5553    0.0000 H       1  UNL1        0.0308
     73 H           3.3432   -2.0876    0.0000 H       1  UNL1        0.0308
     74 H          10.8828    2.1588    0.0000 H       1  UNL1        0.0534
     75 H          11.4233    3.0868    0.0000 H       1  UNL1        0.0534
     76 H           4.0604   -3.5869    0.0000 H       1  UNL1        0.0571
     77 H          12.7448   -0.0299    0.0000 H       1  UNL1        0.2951
     78 H           1.7679   -4.0896    0.0000 H       1  UNL1        0.0274
     79 H           2.1646   -4.8715    0.0000 H       1  UNL1        0.0274
     80 H           2.9465   -4.4748    0.0000 H       1  UNL1        0.0274
     81 H           2.4615   -2.1733    0.0000 H       1  UNL1        0.0274
     82 H           1.5859   -2.1259    0.0000 H       1  UNL1        0.0274
     83 H           1.5385   -3.0014    0.0000 H       1  UNL1        0.0274
@<TRIPOS>BOND
     1    19     1    1
     2     1    68    1
     3     2    29    1
     4     2    77    1
     5     3    29    2
     6     4     5    1
     7     4     7    1
     8     4    10    1
     9     4    17    1
    10     5     6    1
    11     5    13    1
    12     5    18    1
    13     6     8    1
    14     6    11    1
    15     6    34    1
    16     7     9    1
    17     7    12    1
    18     7    35    1
    19     8    15    1
    20     8    20    1
    21     8    21    1
    22     9    14    1
    23     9    19    1
    24     9    36    1
    25    10    14    1
    26    10    37    1
    27    10    38    1
    28    11    12    1
    29    11    39    1
    30    11    40    1
    31    12    41    1
    32    12    42    1
    33    13    16    1
    34    13    43    1
    35    13    44    1
    36    14    45    1
    37    14    46    1
    38    15    16    1
    39    15    22    1
    40    15    47    1
    41    16    48    1
    42    16    49    1
    43    17    50    1
    44    17    51    1
    45    17    52    1
    46    18    53    1
    47    18    54    1
    48    18    55    1
    49    19    23    1
    50    19    24    1
    51    20    25    1
    52    20    56    1
    53    20    57    1
    54    21    58    1
    55    21    59    1
    56    21    60    1
    57    22    26    1
    58    22    28    2
    59    23    27    1
    60    23    61    1
    61    23    62    1
    62    24    63    1
    63    24    64    1
    64    24    65    1
    65    25    29    1
    66    25    66    1
    67    25    67    1
    68    26    69    1
    69    26    70    1
    70    26    71    1
    71    27    30    1
    72    27    72    1
    73    27    73    1
    74    28    74    1
    75    28    75    1
    76    30    31    2
    77    30    76    1
    78    31    32    1
    79    31    33    1
    80    32    78    1
    81    32    79    1
    82    32    80    1
    83    33    81    1
    84    33    82    1
    85    33    83    1
