@<TRIPOS>MOLECULE
IMPHY009176
 35 37 0 0 0
SMALL
GASTEIGER

@<TRIPOS>ATOM
      1 O           6.0682   -2.3877    0.0000 O.3     1  UNL1       -0.4866
      2 O           6.9343    1.1123    0.0000 O.3     1  UNL1       -0.5028
      3 O          10.3984    1.1123    0.0000 O.3     1  UNL1       -0.4913
      4 O           8.6663    2.1123    0.0000 O.3     1  UNL1       -0.5009
      5 O           2.5381   -2.4118    0.0000 O.3     1  UNL1       -0.5066
      6 C           6.9343   -0.8877    0.0000 C.2     1  UNL1        0.0010
      7 C           6.9343   -1.8877    0.0000 C.3     1  UNL1        0.1153
      8 C           7.8003   -0.3877    0.0000 C.ar    1  UNL1        0.0267
      9 C           5.2022   -0.8877    0.0000 C.ar    1  UNL1        0.0173
     10 C           6.0682   -0.3877    0.0000 C.2     1  UNL1       -0.0440
     11 C           5.2022   -1.8877    0.0000 C.ar    1  UNL1        0.1316
     12 C           7.8003    0.6123    0.0000 C.ar    1  UNL1        0.1696
     13 C           8.6663   -0.8877    0.0000 C.ar    1  UNL1       -0.0470
     14 C           4.3083   -0.3530    0.0000 C.ar    1  UNL1       -0.0476
     15 C           4.3083   -2.4223    0.0000 C.ar    1  UNL1        0.0221
     16 C           8.6663    1.1123    0.0000 C.ar    1  UNL1        0.2014
     17 C           9.5323   -0.3877    0.0000 C.ar    1  UNL1       -0.0155
     18 C           9.5323    0.6123    0.0000 C.ar    1  UNL1        0.1650
     19 C           3.4022   -1.9085    0.0000 C.ar    1  UNL1        0.1204
     20 C           3.4022   -0.8669    0.0000 C.ar    1  UNL1       -0.0194
     21 C          11.2644    0.6123    0.0000 C.3     1  UNL1        0.0790
     22 H           7.1463   -2.4703    0.0000 H       1  UNL1        0.0748
     23 H           7.5449   -1.7800    0.0000 H       1  UNL1        0.0748
     24 H           6.0682    0.2323    0.0000 H       1  UNL1        0.0629
     25 H           8.6663   -1.5077    0.0000 H       1  UNL1        0.0626
     26 H           4.3154    0.2670    0.0000 H       1  UNL1        0.0626
     27 H           4.3154   -3.0423    0.0000 H       1  UNL1        0.0691
     28 H          10.0693   -0.6977    0.0000 H       1  UNL1        0.0655
     29 H           2.8665   -0.5548    0.0000 H       1  UNL1        0.0654
     30 H           6.9343    1.7323    0.0000 H       1  UNL1        0.2923
     31 H           9.2033    2.4223    0.0000 H       1  UNL1        0.2924
     32 H           2.0000   -2.1039    0.0000 H       1  UNL1        0.2921
     33 H          10.9544    0.0754    0.0000 H       1  UNL1        0.0660
     34 H          11.8013    0.3023    0.0000 H       1  UNL1        0.0660
     35 H          11.5744    1.1493    0.0000 H       1  UNL1        0.0660
@<TRIPOS>BOND
     1     1     7    1
     2     1    11    1
     3     2    12    1
     4     2    30    1
     5     3    18    1
     6     3    21    1
     7     4    16    1
     8     4    31    1
     9     5    19    1
    10     5    32    1
    11     6     7    1
    12     6     8    1
    13     6    10    2
    14     7    22    1
    15     7    23    1
    16     8    12   ar
    17     8    13   ar
    18     9    10    1
    19     9    11   ar
    20     9    14   ar
    21    10    24    1
    22    11    15   ar
    23    12    16   ar
    24    13    17   ar
    25    13    25    1
    26    14    20   ar
    27    14    26    1
    28    15    19   ar
    29    15    27    1
    30    16    18   ar
    31    17    18   ar
    32    17    28    1
    33    19    20   ar
    34    20    29    1
    35    21    33    1
    36    21    34    1
    37    21    35    1
