@<TRIPOS>MOLECULE
IMPHY002404
 29 32 0 0 0
SMALL
GASTEIGER

@<TRIPOS>ATOM
      1 O        2465.3100 2399.5500    0.0000 O.2     1  UNL1       -0.2914
      2 C        2430.5700 2419.6000    0.0000 C.2     1  UNL1        0.1721
      3 C        2430.5700 2459.9000    0.0000 C.3     1  UNL1        0.0622
      4 C        2465.2100 2480.0500    0.0000 C.3     1  UNL1        0.0073
      5 C        2465.2100 2520.3500    0.0000 C.3     1  UNL1        0.0004
      6 C        2465.2100 2560.3500    0.0000 C.3     1  UNL1        0.0000
      7 C        2499.7500 2540.6000    0.0000 C.3     1  UNL1        0.0000
      8 C        2534.2900 2520.3500    0.0000 C.3     1  UNL1        0.0000
      9 C        2534.2900 2480.0500    0.0000 C.3     1  UNL1        0.0004
     10 C        2499.7500 2580.6000    0.0000 C.3     1  UNL1        0.0000
     11 C        2534.3900 2600.5500    0.0000 C.3     1  UNL1        0.0000
     12 C        2569.0300 2580.6000    0.0000 C.3     1  UNL1        0.0001
     13 C        2603.6700 2600.5500    0.0000 C.3     1  UNL1        0.0026
     14 C        2638.3100 2580.6000    0.0000 C.3     1  UNL1        0.0330
     15 C        2672.9500 2600.5500    0.0000 C.3     1  UNL1        0.1820
     16 O        2707.5900 2580.6000    0.0000 O.3     1  UNL1       -0.2204
     17 C        2638.3100 2540.6000    0.0000 C.3     1  UNL1        0.0027
     18 C        2465.1100 2600.5500    0.0000 C.3     1  UNL1        0.0000
     19 C        2430.5700 2540.6000    0.0000 C.3     1  UNL1        0.0000
     20 C        2396.0300 2520.3500    0.0000 C.3     1  UNL1        0.0007
     21 C        2396.0300 2480.0500    0.0000 C.3     1  UNL1        0.0107
     22 C        2361.4900 2459.9000    0.0000 C.3     1  UNL1        0.0157
     23 C        2361.4900 2419.6000    0.0000 C.2     1  UNL1       -0.0420
     24 C        2396.0300 2399.4500    0.0000 C.2     1  UNL1        0.0289
     25 C        2326.9500 2399.4500    0.0000 C.3     1  UNL1        0.0221
     26 C        2292.4100 2419.6000    0.0000 C.3     1  UNL1        0.0044
     27 C        2292.4100 2459.9000    0.0000 C.3     1  UNL1        0.0006
     28 C        2326.9500 2480.0500    0.0000 C.3     1  UNL1        0.0038
     29 C        2361.4900 2499.9000    0.0000 C.3     1  UNL1        0.0041
@<TRIPOS>BOND
     1     1     2    2
     2     2     3    1
     3     2    24    1
     4     3     4    1
     5     3    21    1
     6     4     5    1
     7     4     9    1
     8     5     6    1
     9     5     7    1
    10     5    19    1
    11     7     8    1
    12     7    10    1
    13     9     8    1
    14    10    11    1
    15    10    18    1
    16    11    12    1
    17    12    13    1
    18    13    14    1
    19    14    15    1
    20    14    17    1
    21    15    16    1
    22    20    19    1
    23    21    20    1
    24    21    22    1
    25    22    28    1
    26    22    29    1
    27    23    22    1
    28    23    25    1
    29    24    23    2
    30    25    26    1
    31    26    27    1
    32    28    27    1
