@<TRIPOS>MOLECULE
IMPHY002283
 54 55 0 0 0
SMALL
GASTEIGER

@<TRIPOS>ATOM
      1 O           2.0000    3.0949    0.0000 O.2     1  UNL1       -0.3004
      2 O           6.0855   -3.3156    0.0000 O.3     1  UNL1       -0.3848
      3 C           4.3660    0.7288    0.0000 C.3     1  UNL1       -0.0219
      4 C           4.3660    1.7288    0.0000 C.3     1  UNL1       -0.0230
      5 C           3.5000    2.2288    0.0000 C.3     1  UNL1        0.0265
      6 C           5.2600    0.1942    0.0000 C.3     1  UNL1       -0.0144
      7 C           3.5000    0.2288    0.0000 C.3     1  UNL1       -0.0468
      8 C           5.2600    2.2635    0.0000 C.3     1  UNL1       -0.0451
      9 C           2.6340    1.7288    0.0000 C.3     1  UNL1       -0.0409
     10 C           2.6340    0.7288    0.0000 C.3     1  UNL1       -0.0517
     11 C           4.3660   -0.2712    0.0000 C.3     1  UNL1       -0.0587
     12 C           6.1660    1.7496    0.0000 C.3     1  UNL1       -0.0314
     13 C           6.1660    0.7080    0.0000 C.2     1  UNL1       -0.0730
     14 C           5.2484   -0.8058    0.0000 C.3     1  UNL1       -0.0431
     15 C           4.0000    3.0949    0.0000 C.3     1  UNL1       -0.0528
     16 C           3.0000    3.0949    0.0000 C.2     1  UNL1        0.1264
     17 C           6.1086   -1.3157    0.0000 C.3     1  UNL1       -0.0201
     18 C           7.0301    0.2047    0.0000 C.2     1  UNL1       -0.0992
     19 C           6.0970   -2.3157    0.0000 C.3     1  UNL1        0.0811
     20 C           5.0971   -2.3041    0.0000 C.3     1  UNL1       -0.0325
     21 C           7.0970   -2.3272    0.0000 C.2     1  UNL1       -0.0602
     22 C           7.5869   -3.1990    0.0000 C.2     1  UNL1       -0.1000
     23 H           4.3595    2.5788    0.0000 H       1  UNL1        0.0316
     24 H           5.7939   -0.1210    0.0000 H       1  UNL1        0.0351
     25 H           3.1015   -0.2461    0.0000 H       1  UNL1        0.0271
     26 H           3.8985   -0.2461    0.0000 H       1  UNL1        0.0271
     27 H           5.6536    2.7425    0.0000 H       1  UNL1        0.0271
     28 H           4.8554    2.7333    0.0000 H       1  UNL1        0.0271
     29 H           2.4219    2.3114    0.0000 H       1  UNL1        0.0275
     30 H           2.0234    1.6212    0.0000 H       1  UNL1        0.0275
     31 H           2.0234    0.8365    0.0000 H       1  UNL1        0.0266
     32 H           2.4219    0.1462    0.0000 H       1  UNL1        0.0266
     33 H           3.7460   -0.2712    0.0000 H       1  UNL1        0.0235
     34 H           4.3660   -0.8912    0.0000 H       1  UNL1        0.0235
     35 H           4.9860   -0.2712    0.0000 H       1  UNL1        0.0235
     36 H           6.7769    1.6436    0.0000 H       1  UNL1        0.0310
     37 H           6.3751    2.3333    0.0000 H       1  UNL1        0.0310
     38 H           4.6391   -0.6910    0.0000 H       1  UNL1        0.0272
     39 H           5.0296   -1.3859    0.0000 H       1  UNL1        0.0272
     40 H           4.5369    2.7849    0.0000 H       1  UNL1        0.0239
     41 H           4.3100    3.6318    0.0000 H       1  UNL1        0.0239
     42 H           3.4631    3.4049    0.0000 H       1  UNL1        0.0239
     43 H           3.3100    3.6318    0.0000 H       1  UNL1        0.1032
     44 H           6.7179   -1.4305    0.0000 H       1  UNL1        0.0296
     45 H           6.3274   -0.7356    0.0000 H       1  UNL1        0.0296
     46 H           7.0277   -0.4153    0.0000 H       1  UNL1        0.0534
     47 H           7.5682    0.5126    0.0000 H       1  UNL1        0.0534
     48 H           5.1043   -1.6842    0.0000 H       1  UNL1        0.0260
     49 H           4.4771   -2.2969    0.0000 H       1  UNL1        0.0260
     50 H           5.0899   -2.9241    0.0000 H       1  UNL1        0.0260
     51 H           7.4132   -1.7939    0.0000 H       1  UNL1        0.0594
     52 H           6.6188   -3.6318    0.0000 H       1  UNL1        0.2106
     53 H           7.2707   -3.7323    0.0000 H       1  UNL1        0.0533
     54 H           8.2069   -3.2062    0.0000 H       1  UNL1        0.0533
@<TRIPOS>BOND
     1     1    16    2
     2    19     2    1
     3     2    52    1
     4     3     4    1
     5     3     6    1
     6     3     7    1
     7     3    11    1
     8     4     5    1
     9     4     8    1
    10     4    23    1
    11     5     9    1
    12     5    15    1
    13     5    16    1
    14     6    13    1
    15     6    14    1
    16     6    24    1
    17     7    10    1
    18     7    25    1
    19     7    26    1
    20     8    12    1
    21     8    27    1
    22     8    28    1
    23     9    10    1
    24     9    29    1
    25     9    30    1
    26    10    31    1
    27    10    32    1
    28    11    33    1
    29    11    34    1
    30    11    35    1
    31    12    13    1
    32    12    36    1
    33    12    37    1
    34    13    18    2
    35    14    17    1
    36    14    38    1
    37    14    39    1
    38    15    40    1
    39    15    41    1
    40    15    42    1
    41    16    43    1
    42    17    19    1
    43    17    44    1
    44    17    45    1
    45    18    46    1
    46    18    47    1
    47    19    20    1
    48    19    21    1
    49    20    48    1
    50    20    49    1
    51    20    50    1
    52    21    22    2
    53    21    51    1
    54    22    53    1
    55    22    54    1
