@<TRIPOS>MOLECULE
IMPHY013912
 104 109 0 0 0
SMALL
GASTEIGER

@<TRIPOS>ATOM
      1 O           6.8671   -3.1941    0.0000 O.3     1  UNL1       -0.3423
      2 O           5.0597   -2.1413    0.0000 O.3     1  UNL1       -0.3892
      3 O           9.3112   -2.5024    0.0000 O.3     1  UNL1       -0.3944
      4 O           8.6209    6.0853    0.0000 O.3     1  UNL1       -0.4802
      5 O           9.5042    4.5954    0.0000 O.2     1  UNL1       -0.2504
      6 O           5.1350   -3.1941    0.0000 O.3     1  UNL1       -0.3405
      7 O           6.8671   -5.1941    0.0000 O.3     1  UNL1       -0.3841
      8 O           5.1350   -6.1941    0.0000 O.3     1  UNL1       -0.3864
      9 O           3.4030   -5.1941    0.0000 O.3     1  UNL1       -0.3865
     10 O           2.5369   -3.6941    0.0000 O.3     1  UNL1       -0.3924
     11 C           7.7681    1.5061    0.0000 C.3     1  UNL1       -0.0194
     12 C           6.8920   -0.0388    0.0000 C.3     1  UNL1       -0.0225
     13 C           6.9040    1.0028    0.0000 C.3     1  UNL1       -0.0257
     14 C           7.7643    2.5061    0.0000 C.3     1  UNL1       -0.0051
     15 C           7.7920   -0.5631    0.0000 C.3     1  UNL1       -0.0253
     16 C           8.6801    1.0028    0.0000 C.3     1  UNL1       -0.0463
     17 C           7.8046   -1.6480    0.0000 C.3     1  UNL1        0.0231
     18 C           8.6921   -0.0388    0.0000 C.3     1  UNL1       -0.0485
     19 C           6.8963    3.0027    0.0000 C.2     1  UNL1       -0.0629
     20 C           5.9421   -0.5631    0.0000 C.3     1  UNL1       -0.0184
     21 C           6.0361    1.4994    0.0000 C.3     1  UNL1       -0.0306
     22 C           6.8762    4.0442    0.0000 C.3     1  UNL1       -0.0031
     23 C           8.6723    3.0164    0.0000 C.3     1  UNL1       -0.0424
     24 C           7.7722    4.5754    0.0000 C.3     1  UNL1        0.0741
     25 C           6.8671   -2.1941    0.0000 C.3     1  UNL1        0.0953
     26 C           8.7522    1.6835    0.0000 C.3     1  UNL1       -0.0585
     27 C           5.9295   -1.6480    0.0000 C.3     1  UNL1        0.0825
     28 C           8.6763    4.0580    0.0000 C.3     1  UNL1       -0.0359
     29 C           6.0279    0.4645    0.0000 C.3     1  UNL1       -0.0589
     30 C           6.0322    2.4994    0.0000 C.2     1  UNL1       -0.0836
     31 C           8.7497    2.3362    0.0000 C.3     1  UNL1       -0.0553
     32 C           5.9223    4.5611    0.0000 C.3     1  UNL1       -0.0403
     33 C           7.7764    5.6604    0.0000 C.3     1  UNL1       -0.0362
     34 C           5.9014    5.6459    0.0000 C.3     1  UNL1       -0.0343
     35 C           8.3113   -2.5102    0.0000 C.3     1  UNL1        0.0523
     36 C           8.8046   -1.6403    0.0000 C.3     1  UNL1       -0.0547
     37 C           6.8347    6.1992    0.0000 C.3     1  UNL1       -0.0468
     38 C           8.6324    5.0854    0.0000 C.2     1  UNL1        0.3115
     39 C           5.3881    6.5041    0.0000 C.3     1  UNL1       -0.0598
     40 C           4.9015    5.6305    0.0000 C.3     1  UNL1       -0.0598
     41 C           6.0010   -3.6941    0.0000 C.3     1  UNL1        0.1883
     42 C           6.0010   -4.6941    0.0000 C.3     1  UNL1        0.1341
     43 C           5.1350   -5.1941    0.0000 C.3     1  UNL1        0.1141
     44 C           4.2690   -3.6941    0.0000 C.3     1  UNL1        0.1130
     45 C           4.2690   -4.6941    0.0000 C.3     1  UNL1        0.1119
     46 C           3.4030   -3.1941    0.0000 C.3     1  UNL1        0.0730
     47 H           7.6385    0.5749    0.0000 H       1  UNL1        0.0315
     48 H           8.3314   -0.8689    0.0000 H       1  UNL1        0.0313
     49 H           9.2921    0.9037    0.0000 H       1  UNL1        0.0271
     50 H           8.8824    1.5888    0.0000 H       1  UNL1        0.0271
     51 H           8.9079   -0.6200    0.0000 H       1  UNL1        0.0268
     52 H           9.3017    0.0743    0.0000 H       1  UNL1        0.0268
     53 H           5.7398    0.0230    0.0000 H       1  UNL1        0.0296
     54 H           5.3300   -0.6621    0.0000 H       1  UNL1        0.0296
     55 H           5.4251    1.6047    0.0000 H       1  UNL1        0.0310
     56 H           5.8263    0.9160    0.0000 H       1  UNL1        0.0310
     57 H           6.1502    3.6023    0.0000 H       1  UNL1        0.0357
     58 H           8.8791    2.4319    0.0000 H       1  UNL1        0.0274
     59 H           9.2836    3.1202    0.0000 H       1  UNL1        0.0274
     60 H           7.4046   -2.5031    0.0000 H       1  UNL1        0.0629
     61 H           8.8623    1.0734    0.0000 H       1  UNL1        0.0235
     62 H           9.3624    1.7936    0.0000 H       1  UNL1        0.0235
     63 H           8.6422    2.2937    0.0000 H       1  UNL1        0.0235
     64 H           5.3956   -1.3329    0.0000 H       1  UNL1        0.0619
     65 H           9.2868    3.9496    0.0000 H       1  UNL1        0.0276
     66 H           8.8876    4.6409    0.0000 H       1  UNL1        0.0276
     67 H           6.3400    1.0003    0.0000 H       1  UNL1        0.0235
     68 H           5.4922    0.7766    0.0000 H       1  UNL1        0.0235
     69 H           5.7158   -0.0712    0.0000 H       1  UNL1        0.0235
     70 H           5.4941    2.8073    0.0000 H       1  UNL1        0.0572
     71 H           8.6444    1.7252    0.0000 H       1  UNL1        0.0238
     72 H           9.3607    2.2309    0.0000 H       1  UNL1        0.0238
     73 H           8.8550    2.9472    0.0000 H       1  UNL1        0.0238
     74 H           5.3095    4.6554    0.0000 H       1  UNL1        0.0276
     75 H           5.7246    3.9735    0.0000 H       1  UNL1        0.0276
     76 H           8.3869    5.5519    0.0000 H       1  UNL1        0.0276
     77 H           7.9877    6.2433    0.0000 H       1  UNL1        0.0276
     78 H           7.7303   -2.7267    0.0000 H       1  UNL1        0.0563
     79 H           8.4236   -3.1199    0.0000 H       1  UNL1        0.0563
     80 H           8.8094   -2.2603    0.0000 H       1  UNL1        0.0237
     81 H           9.4246   -1.6355    0.0000 H       1  UNL1        0.0237
     82 H           8.7998   -1.0203    0.0000 H       1  UNL1        0.0237
     83 H           7.2302    6.6767    0.0000 H       1  UNL1        0.0271
     84 H           6.4319    6.6706    0.0000 H       1  UNL1        0.0271
     85 H           4.5251   -1.8272    0.0000 H       1  UNL1        0.2099
     86 H           5.9202    6.8224    0.0000 H       1  UNL1        0.0235
     87 H           5.0699    7.0362    0.0000 H       1  UNL1        0.0235
     88 H           4.8560    6.1859    0.0000 H       1  UNL1        0.0235
     89 H           4.8920    6.2504    0.0000 H       1  UNL1        0.0235
     90 H           4.2816    5.6209    0.0000 H       1  UNL1        0.0235
     91 H           4.9111    5.0106    0.0000 H       1  UNL1        0.0235
     92 H           6.0010   -3.0741    0.0000 H       1  UNL1        0.0938
     93 H           9.6254   -3.0370    0.0000 H       1  UNL1        0.2094
     94 H           9.1542    6.4015    0.0000 H       1  UNL1        0.2951
     95 H           6.0010   -5.3141    0.0000 H       1  UNL1        0.0671
     96 H           4.5981   -5.5041    0.0000 H       1  UNL1        0.0648
     97 H           4.2690   -3.0741    0.0000 H       1  UNL1        0.0647
     98 H           4.2690   -5.3141    0.0000 H       1  UNL1        0.0647
     99 H           6.8671   -5.8141    0.0000 H       1  UNL1        0.2101
    100 H           3.8015   -2.7192    0.0000 H       1  UNL1        0.0584
    101 H           3.0044   -2.7192    0.0000 H       1  UNL1        0.0584
    102 H           4.5981   -6.5041    0.0000 H       1  UNL1        0.2100
    103 H           3.4030   -5.8141    0.0000 H       1  UNL1        0.2100
    104 H           2.0000   -3.3841    0.0000 H       1  UNL1        0.2095
@<TRIPOS>BOND
     1    25     1    1
     2    41     1    1
     3    27     2    1
     4     2    85    1
     5     3    35    1
     6     3    93    1
     7     4    38    1
     8     4    94    1
     9     5    38    2
    10     6    41    1
    11     6    44    1
    12    42     7    1
    13     7    99    1
    14    43     8    1
    15     8   102    1
    16    45     9    1
    17     9   103    1
    18    10    46    1
    19    10   104    1
    20    11    13    1
    21    11    14    1
    22    11    16    1
    23    11    26    1
    24    12    13    1
    25    12    15    1
    26    12    20    1
    27    12    29    1
    28    13    21    1
    29    13    47    1
    30    14    19    1
    31    14    23    1
    32    14    31    1
    33    15    17    1
    34    15    18    1
    35    15    48    1
    36    16    18    1
    37    16    49    1
    38    16    50    1
    39    17    25    1
    40    17    35    1
    41    17    36    1
    42    18    51    1
    43    18    52    1
    44    19    22    1
    45    19    30    2
    46    20    27    1
    47    20    53    1
    48    20    54    1
    49    21    30    1
    50    21    55    1
    51    21    56    1
    52    22    24    1
    53    22    32    1
    54    22    57    1
    55    23    28    1
    56    23    58    1
    57    23    59    1
    58    24    28    1
    59    24    33    1
    60    24    38    1
    61    25    27    1
    62    25    60    1
    63    26    61    1
    64    26    62    1
    65    26    63    1
    66    27    64    1
    67    28    65    1
    68    28    66    1
    69    29    67    1
    70    29    68    1
    71    29    69    1
    72    30    70    1
    73    31    71    1
    74    31    72    1
    75    31    73    1
    76    32    34    1
    77    32    74    1
    78    32    75    1
    79    33    37    1
    80    33    76    1
    81    33    77    1
    82    34    37    1
    83    34    39    1
    84    34    40    1
    85    35    78    1
    86    35    79    1
    87    36    80    1
    88    36    81    1
    89    36    82    1
    90    37    83    1
    91    37    84    1
    92    39    86    1
    93    39    87    1
    94    39    88    1
    95    40    89    1
    96    40    90    1
    97    40    91    1
    98    41    42    1
    99    41    92    1
   100    42    43    1
   101    42    95    1
   102    43    45    1
   103    43    96    1
   104    44    45    1
   105    44    46    1
   106    44    97    1
   107    45    98    1
   108    46   100    1
   109    46   101    1
