@<TRIPOS>MOLECULE
IMPHY009281
 96 99 0 0 0
SMALL
GASTEIGER

@<TRIPOS>ATOM
      1 O           8.3451   -1.7177    0.0000 O.3     1  UNL1       -0.4864
      2 O           9.7404    2.2337    0.0000 O.2     1  UNL1       -0.2735
      3 O          10.0188    0.2486    0.0000 O.2     1  UNL1       -0.2736
      4 O          13.3954    1.1981    0.0000 O.2     1  UNL1       -0.2734
      5 O           6.2149    2.9896    0.0000 O.2     1  UNL1       -0.2741
      6 O          11.7217   -3.6672    0.0000 O.3     1  UNL1       -0.4945
      7 N           8.9811    0.6769    0.0000 N.am    1  UNL1       -0.2849
      8 N          10.8557   -0.2683    0.0000 N.am    1  UNL1       -0.3021
      9 N           7.1835    1.5537    0.0000 N.am    1  UNL1       -0.3027
     10 N          12.5294   -0.2683    0.0000 N.am    1  UNL1       -0.2904
     11 N           5.5254    0.4353    0.0000 N.3     1  UNL1       -0.3084
     12 C           9.1820   -0.2683    0.0000 C.3     1  UNL1        0.1390
     13 C           8.3451   -0.7514    0.0000 C.3     1  UNL1        0.1285
     14 C           7.6270   -0.1048    0.0000 C.3     1  UNL1        0.0024
     15 C           8.0201    0.7780    0.0000 C.3     1  UNL1        0.0191
     16 C           8.9113    1.6745    0.0000 C.2     1  UNL1        0.2366
     17 C          10.0188   -0.7514    0.0000 C.2     1  UNL1        0.2378
     18 C           8.0125    2.1129    0.0000 C.3     1  UNL1        0.0998
     19 C           7.9428    3.1104    0.0000 C.3     1  UNL1       -0.0236
     20 C          10.8557    0.6981    0.0000 C.3     1  UNL1        0.1023
     21 C           8.7718    3.6696    0.0000 C.3     1  UNL1       -0.0446
     22 C          11.0293    1.6829    0.0000 C.3     1  UNL1       -0.0171
     23 C           9.1820   -2.2009    0.0000 C.ar    1  UNL1        0.1218
     24 C          11.9690    2.0249    0.0000 C.3     1  UNL1       -0.0512
     25 C          12.5294    0.6981    0.0000 C.2     1  UNL1        0.2374
     26 C           8.7020    4.6672    0.0000 C.3     1  UNL1       -0.0626
     27 C           9.6706    3.2313    0.0000 C.3     1  UNL1       -0.0626
     28 C          10.6873    2.6226    0.0000 C.3     1  UNL1       -0.0603
     29 C           6.2847    1.9920    0.0000 C.2     1  UNL1        0.2310
     30 C           5.4557    1.4328    0.0000 C.3     1  UNL1        0.0885
     31 C          10.0188   -1.7177    0.0000 C.ar    1  UNL1       -0.0092
     32 C           9.1820   -3.1672    0.0000 C.ar    1  UNL1       -0.0164
     33 C          12.7351    1.3821    0.0000 C.3     1  UNL1       -0.0650
     34 C          10.8557   -2.2009    0.0000 C.ar    1  UNL1        0.0213
     35 C           4.5569    1.8712    0.0000 C.3     1  UNL1       -0.0037
     36 C          10.0188   -3.6504    0.0000 C.ar    1  UNL1       -0.0159
     37 C          10.8557   -3.1672    0.0000 C.ar    1  UNL1        0.1275
     38 C          11.6925   -0.7514    0.0000 C.2     1  UNL1       -0.0030
     39 C          11.6925   -1.7177    0.0000 C.2     1  UNL1       -0.0371
     40 C           3.7278    1.3120    0.0000 C.ar    1  UNL1       -0.0454
     41 C           4.6964   -0.1239    0.0000 C.3     1  UNL1       -0.0151
     42 C           2.8290    1.7504    0.0000 C.ar    1  UNL1       -0.0585
     43 C           3.7976    0.3145    0.0000 C.ar    1  UNL1       -0.0585
     44 C          11.7217   -4.6672    0.0000 C.3     1  UNL1        0.0788
     45 C           2.0000    1.1912    0.0000 C.ar    1  UNL1       -0.0615
     46 C           2.9686   -0.2447    0.0000 C.ar    1  UNL1       -0.0615
     47 C           2.0698    0.1936    0.0000 C.ar    1  UNL1       -0.0617
     48 H           9.6836    0.0962    0.0000 H       1  UNL1        0.0634
     49 H           7.7787   -1.0036    0.0000 H       1  UNL1        0.0757
     50 H           7.0901    0.2052    0.0000 H       1  UNL1        0.0317
     51 H           7.2626   -0.6064    0.0000 H       1  UNL1        0.0317
     52 H           8.1490    1.3844    0.0000 H       1  UNL1        0.0466
     53 H           7.4304    0.9695    0.0000 H       1  UNL1        0.0466
     54 H           7.4553    2.3847    0.0000 H       1  UNL1        0.0595
     55 H           7.6906    3.6768    0.0000 H       1  UNL1        0.0290
     56 H           7.3412    2.9604    0.0000 H       1  UNL1        0.0290
     57 H          10.2381    0.7521    0.0000 H       1  UNL1        0.0597
     58 H          11.3921    0.0427    0.0000 H       1  UNL1        0.1495
     59 H           8.2145    3.9414    0.0000 H       1  UNL1        0.0296
     60 H          10.4117    1.6288    0.0000 H       1  UNL1        0.0321
     61 H           7.2267    0.9352    0.0000 H       1  UNL1        0.1495
     62 H          12.4440    2.4234    0.0000 H       1  UNL1        0.0266
     63 H          11.6590    2.5618    0.0000 H       1  UNL1        0.0266
     64 H           9.3205    4.7104    0.0000 H       1  UNL1        0.0232
     65 H           8.6588    5.2857    0.0000 H       1  UNL1        0.0232
     66 H           8.0836    4.6240    0.0000 H       1  UNL1        0.0232
     67 H           9.3988    2.6740    0.0000 H       1  UNL1        0.0232
     68 H          10.2279    2.9595    0.0000 H       1  UNL1        0.0232
     69 H           9.9424    3.7885    0.0000 H       1  UNL1        0.0232
     70 H          11.2699    2.8346    0.0000 H       1  UNL1        0.0233
     71 H          10.4753    3.2052    0.0000 H       1  UNL1        0.0233
     72 H          10.1047    2.4105    0.0000 H       1  UNL1        0.0233
     73 H           6.0129    1.1611    0.0000 H       1  UNL1        0.0559
     74 H          10.0188   -1.0977    0.0000 H       1  UNL1        0.0661
     75 H           8.6450   -3.4772    0.0000 H       1  UNL1        0.0655
     76 H          12.3365    0.9072    0.0000 H       1  UNL1        0.0230
     77 H          13.2100    0.9836    0.0000 H       1  UNL1        0.0230
     78 H          13.1336    1.8571    0.0000 H       1  UNL1        0.0230
     79 H          13.0663   -0.5783    0.0000 H       1  UNL1        0.1543
     80 H           4.9213    2.3728    0.0000 H       1  UNL1        0.0333
     81 H           4.1262    2.3172    0.0000 H       1  UNL1        0.0333
     82 H          10.0188   -4.2704    0.0000 H       1  UNL1        0.0655
     83 H           6.0827    0.1635    0.0000 H       1  UNL1        0.1223
     84 H          12.2295   -1.0614    0.0000 H       1  UNL1        0.0782
     85 H          12.2295   -2.0277    0.0000 H       1  UNL1        0.0637
     86 H           4.3497    0.3901    0.0000 H       1  UNL1        0.0388
     87 H           4.1824   -0.4706    0.0000 H       1  UNL1        0.0388
     88 H           5.0431   -0.6379    0.0000 H       1  UNL1        0.0388
     89 H           2.7858    2.3689    0.0000 H       1  UNL1        0.0620
     90 H           4.3548    0.0427    0.0000 H       1  UNL1        0.0620
     91 H          11.1017   -4.6672    0.0000 H       1  UNL1        0.0660
     92 H          11.7217   -5.2872    0.0000 H       1  UNL1        0.0660
     93 H          12.3417   -4.6672    0.0000 H       1  UNL1        0.0660
     94 H           1.4428    1.4630    0.0000 H       1  UNL1        0.0618
     95 H           3.0118   -0.8632    0.0000 H       1  UNL1        0.0618
     96 H           1.5558   -0.1531    0.0000 H       1  UNL1        0.0618
@<TRIPOS>BOND
     1     1    13    1
     2     1    23    1
     3     2    16    2
     4     3    17    2
     5     4    25    2
     6     5    29    2
     7     6    37    1
     8     6    44    1
     9     7    12    1
    10     7    15    1
    11     7    16   am
    12     8    17   am
    13     8    20    1
    14     8    58    1
    15     9    18    1
    16     9    29   am
    17     9    61    1
    18    10    25   am
    19    10    38    1
    20    10    79    1
    21    11    30    1
    22    11    41    1
    23    11    83    1
    24    12    13    1
    25    12    17    1
    26    12    48    1
    27    13    14    1
    28    13    49    1
    29    14    15    1
    30    14    50    1
    31    14    51    1
    32    15    52    1
    33    15    53    1
    34    16    18    1
    35    18    19    1
    36    18    54    1
    37    19    21    1
    38    19    55    1
    39    19    56    1
    40    20    22    1
    41    20    25    1
    42    20    57    1
    43    21    26    1
    44    21    27    1
    45    21    59    1
    46    22    24    1
    47    22    28    1
    48    22    60    1
    49    23    31   ar
    50    23    32   ar
    51    24    33    1
    52    24    62    1
    53    24    63    1
    54    26    64    1
    55    26    65    1
    56    26    66    1
    57    27    67    1
    58    27    68    1
    59    27    69    1
    60    28    70    1
    61    28    71    1
    62    28    72    1
    63    29    30    1
    64    30    35    1
    65    30    73    1
    66    31    34   ar
    67    31    74    1
    68    32    36   ar
    69    32    75    1
    70    33    76    1
    71    33    77    1
    72    33    78    1
    73    34    37   ar
    74    34    39    1
    75    35    40    1
    76    35    80    1
    77    35    81    1
    78    36    37   ar
    79    36    82    1
    80    38    39    2
    81    38    84    1
    82    39    85    1
    83    40    42   ar
    84    40    43   ar
    85    41    86    1
    86    41    87    1
    87    41    88    1
    88    42    45   ar
    89    42    89    1
    90    43    46   ar
    91    43    90    1
    92    44    91    1
    93    44    92    1
    94    44    93    1
    95    45    47   ar
    96    45    94    1
    97    46    47   ar
    98    46    95    1
    99    47    96    1
