@<TRIPOS>MOLECULE
IMPHY004177
 73 78 0 0 0
SMALL
GASTEIGER

@<TRIPOS>ATOM
      1 O           3.7998   -3.7950    0.0000 O.3     1  UNL1       -0.3634
      2 O           6.4344   -2.2877    0.0000 O.3     1  UNL1       -0.3876
      3 O           7.1381    1.0176    0.0000 O.3     1  UNL1       -0.3850
      4 O           8.8328   -0.1707    0.0000 O.3     1  UNL1       -0.3823
      5 O           2.9176   -0.2600    0.0000 O.2     1  UNL1       -0.2920
      6 O           8.9720    2.2194    0.0000 O.3     1  UNL1       -0.4548
      7 O           9.6914    3.7950    0.0000 O.2     1  UNL1       -0.2453
      8 C           5.5321   -1.7946    0.0000 C.3     1  UNL1       -0.0053
      9 C           6.4421   -1.2877    0.0000 C.3     1  UNL1        0.0774
     10 C           4.6660   -1.2946    0.0000 C.3     1  UNL1       -0.0203
     11 C           3.8000   -2.7946    0.0000 C.3     1  UNL1        0.1119
     12 C           6.4501   -0.2461    0.0000 C.3     1  UNL1        0.0285
     13 C           3.8000   -1.7946    0.0000 C.3     1  UNL1        0.0649
     14 C           4.6660   -3.2946    0.0000 C.3     1  UNL1        0.0900
     15 C           5.5321   -2.7946    0.0000 C.3     1  UNL1       -0.0181
     16 C           7.4381    0.0637    0.0000 C.3     1  UNL1        0.1058
     17 C           4.6500   -0.2530    0.0000 C.3     1  UNL1       -0.0482
     18 C           5.5480    0.2747    0.0000 C.3     1  UNL1       -0.0420
     19 C           7.4252   -1.6127    0.0000 C.3     1  UNL1       -0.0204
     20 C           8.0396   -0.7792    0.0000 C.3     1  UNL1       -0.0179
     21 C           2.9061   -3.3292    0.0000 C.3     1  UNL1       -0.0017
     22 C           8.2526    0.6438    0.0000 C.3     1  UNL1        0.1293
     23 C           6.1153    0.6962    0.0000 C.3     1  UNL1       -0.0542
     24 C           3.8000   -0.7946    0.0000 C.3     1  UNL1       -0.0495
     25 C           2.9061   -1.2599    0.0000 C.2     1  UNL1        0.1647
     26 C           2.0000   -2.8154    0.0000 C.2     1  UNL1       -0.0779
     27 C           2.0000   -1.7737    0.0000 C.2     1  UNL1       -0.0224
     28 C           9.0672    1.2240    0.0000 C.3     1  UNL1        0.1380
     29 C           7.6725    1.4584    0.0000 C.3     1  UNL1       -0.0298
     30 C           9.9768    0.8086    0.0000 C.3     1  UNL1        0.0089
     31 C          10.7914    1.3887    0.0000 C.2     1  UNL1       -0.0594
     32 C           9.7866    2.7995    0.0000 C.2     1  UNL1        0.3352
     33 C          10.6962    2.3842    0.0000 C.2     1  UNL1        0.0326
     34 C          11.7010    0.9734    0.0000 C.3     1  UNL1       -0.0429
     35 C          11.5108    2.9643    0.0000 C.3     1  UNL1       -0.0330
     36 H           6.2649   -2.2252    0.0000 H       1  UNL1        0.0332
     37 H           5.3989   -0.8639    0.0000 H       1  UNL1        0.0315
     38 H           5.0911   -4.0306    0.0000 H       1  UNL1        0.0625
     39 H           5.7441   -3.3772    0.0000 H       1  UNL1        0.0295
     40 H           6.1426   -2.6869    0.0000 H       1  UNL1        0.0295
     41 H           4.4319    0.3274    0.0000 H       1  UNL1        0.0269
     42 H           4.0408   -0.3685    0.0000 H       1  UNL1        0.0269
     43 H           5.9453    0.7507    0.0000 H       1  UNL1        0.0272
     44 H           5.1470    0.7476    0.0000 H       1  UNL1        0.0272
     45 H           7.1698   -2.1777    0.0000 H       1  UNL1        0.0294
     46 H           7.9602   -1.9261    0.0000 H       1  UNL1        0.0294
     47 H           8.4972   -1.1975    0.0000 H       1  UNL1        0.0295
     48 H           8.5036   -0.3680    0.0000 H       1  UNL1        0.0295
     49 H           2.5124   -3.8082    0.0000 H       1  UNL1        0.0336
     50 H           3.3107   -3.7990    0.0000 H       1  UNL1        0.0336
     51 H           6.6996    0.9037    0.0000 H       1  UNL1        0.0237
     52 H           5.9078    1.2804    0.0000 H       1  UNL1        0.0237
     53 H           5.5311    0.4886    0.0000 H       1  UNL1        0.0237
     54 H           4.4200   -0.7946    0.0000 H       1  UNL1        0.0240
     55 H           3.8000   -0.1746    0.0000 H       1  UNL1        0.0240
     56 H           3.1800   -0.7946    0.0000 H       1  UNL1        0.0240
     57 H           6.9689   -2.6018    0.0000 H       1  UNL1        0.2102
     58 H           1.4643   -3.1274    0.0000 H       1  UNL1        0.0574
     59 H           6.6154    1.3511    0.0000 H       1  UNL1        0.2103
     60 H           1.4643   -1.4617    0.0000 H       1  UNL1        0.0649
     61 H           8.2940    1.5770    0.0000 H       1  UNL1        0.0767
     62 H           8.1775    1.8180    0.0000 H       1  UNL1        0.0259
     63 H           7.3128    1.9634    0.0000 H       1  UNL1        0.0259
     64 H           7.1675    1.0987    0.0000 H       1  UNL1        0.0259
     65 H           9.4500   -0.1117    0.0000 H       1  UNL1        0.2104
     66 H           9.6253    0.2979    0.0000 H       1  UNL1        0.0347
     67 H          10.4187    0.3737    0.0000 H       1  UNL1        0.0347
     68 H          11.4435    0.4094    0.0000 H       1  UNL1        0.0275
     69 H          12.2650    0.7159    0.0000 H       1  UNL1        0.0275
     70 H          11.9586    1.5374    0.0000 H       1  UNL1        0.0275
     71 H          11.8704    2.4593    0.0000 H       1  UNL1        0.0280
     72 H          12.0158    3.3240    0.0000 H       1  UNL1        0.0280
     73 H          11.1511    3.4693    0.0000 H       1  UNL1        0.0280
@<TRIPOS>BOND
     1    11     1    1
     2     1    14    1
     3     9     2    1
     4     2    57    1
     5    16     3    1
     6     3    59    1
     7    22     4    1
     8     4    65    1
     9     5    25    2
    10     6    28    1
    11     6    32    1
    12     7    32    2
    13     8     9    1
    14     8    10    1
    15     8    15    1
    16     8    36    1
    17     9    12    1
    18     9    19    1
    19    10    13    1
    20    10    17    1
    21    10    37    1
    22    11    13    1
    23    11    14    1
    24    11    21    1
    25    12    16    1
    26    12    18    1
    27    12    23    1
    28    13    24    1
    29    13    25    1
    30    14    15    1
    31    14    38    1
    32    15    39    1
    33    15    40    1
    34    16    20    1
    35    16    22    1
    36    17    18    1
    37    17    41    1
    38    17    42    1
    39    18    43    1
    40    18    44    1
    41    19    20    1
    42    19    45    1
    43    19    46    1
    44    20    47    1
    45    20    48    1
    46    21    26    1
    47    21    49    1
    48    21    50    1
    49    22    28    1
    50    22    29    1
    51    23    51    1
    52    23    52    1
    53    23    53    1
    54    24    54    1
    55    24    55    1
    56    24    56    1
    57    25    27    1
    58    26    27    2
    59    26    58    1
    60    27    60    1
    61    28    30    1
    62    28    61    1
    63    29    62    1
    64    29    63    1
    65    29    64    1
    66    30    31    1
    67    30    66    1
    68    30    67    1
    69    31    33    2
    70    31    34    1
    71    32    33    1
    72    33    35    1
    73    34    68    1
    74    34    69    1
    75    34    70    1
    76    35    71    1
    77    35    72    1
    78    35    73    1
