@<TRIPOS>MOLECULE
IMPHY003563
 57 60 0 0 0
SMALL
GASTEIGER

@<TRIPOS>ATOM
      1 O           7.4260   -3.1074    0.0000 O.3     1  UNL1       -0.4900
      2 O           3.9061   -3.1074    0.0000 O.3     1  UNL1       -0.4814
      3 O           7.4144   -0.0381    0.0000 O.2     1  UNL1       -0.2910
      4 O           5.6660   -0.0727    0.0000 O.3     1  UNL1       -0.5052
      5 O          10.0680   -2.5452    0.0000 O.3     1  UNL1       -0.5064
      6 O          11.7884    0.4615    0.0000 O.3     1  UNL1       -0.5064
      7 C           8.3321   -1.5519    0.0000 C.3     1  UNL1        0.0847
      8 C           6.5320   -1.5727    0.0000 C.ar    1  UNL1        0.1018
      9 C           8.3321   -2.5935    0.0000 C.3     1  UNL1        0.1036
     10 C           7.4260   -1.0380    0.0000 C.2     1  UNL1        0.1809
     11 C           3.0000   -2.5935    0.0000 C.3     1  UNL1        0.1235
     12 C           9.1962   -1.0485    0.0000 C.ar    1  UNL1        0.0083
     13 C           6.5320   -2.5727    0.0000 C.ar    1  UNL1        0.1381
     14 C           4.8000   -1.5727    0.0000 C.ar    1  UNL1        0.0588
     15 C           4.8000   -2.5727    0.0000 C.ar    1  UNL1        0.1359
     16 C           5.6660   -1.0727    0.0000 C.ar    1  UNL1        0.1415
     17 C           5.6660   -3.0727    0.0000 C.ar    1  UNL1        0.0234
     18 C           3.0000   -1.5519    0.0000 C.2     1  UNL1       -0.0408
     19 C           3.9061   -1.0380    0.0000 C.2     1  UNL1       -0.0478
     20 C           9.1923   -0.0485    0.0000 C.ar    1  UNL1       -0.0474
     21 C          10.0641   -1.5452    0.0000 C.ar    1  UNL1        0.1243
     22 C           2.0000   -2.5974    0.0000 C.3     1  UNL1       -0.0215
     23 C           2.5033   -3.4614    0.0000 C.3     1  UNL1       -0.0215
     24 C          10.0564    0.4548    0.0000 C.ar    1  UNL1       -0.0017
     25 C          10.9282   -1.0419    0.0000 C.ar    1  UNL1        0.0219
     26 C          10.9243   -0.0419    0.0000 C.ar    1  UNL1        0.1238
     27 C          10.0525    1.4548    0.0000 C.3     1  UNL1       -0.0058
     28 C          10.9166    1.9581    0.0000 C.2     1  UNL1       -0.0809
     29 C          10.9128    2.9581    0.0000 C.2     1  UNL1       -0.0793
     30 C          11.7769    3.4614    0.0000 C.3     1  UNL1       -0.0440
     31 C          10.0448    3.4548    0.0000 C.3     1  UNL1       -0.0440
     32 H           8.3285   -0.9319    0.0000 H       1  UNL1        0.0464
     33 H           8.5411   -3.1772    0.0000 H       1  UNL1        0.0707
     34 H           8.9429   -2.4874    0.0000 H       1  UNL1        0.0707
     35 H           5.6660   -3.6927    0.0000 H       1  UNL1        0.0691
     36 H           2.4643   -1.2398    0.0000 H       1  UNL1        0.0611
     37 H           3.9132   -0.4181    0.0000 H       1  UNL1        0.0624
     38 H           8.6542    0.2594    0.0000 H       1  UNL1        0.0626
     39 H           1.9976   -1.9774    0.0000 H       1  UNL1        0.0271
     40 H           1.3800   -2.5997    0.0000 H       1  UNL1        0.0271
     41 H           2.0024   -3.2174    0.0000 H       1  UNL1        0.0271
     42 H           1.9652   -3.1535    0.0000 H       1  UNL1        0.0271
     43 H           2.1954   -3.9996    0.0000 H       1  UNL1        0.0271
     44 H           3.0415   -3.7694    0.0000 H       1  UNL1        0.0271
     45 H          11.4663   -1.3498    0.0000 H       1  UNL1        0.0691
     46 H           9.8382    2.0366    0.0000 H       1  UNL1        0.0357
     47 H           9.4424    1.3448    0.0000 H       1  UNL1        0.0357
     48 H           5.1291    0.2373    0.0000 H       1  UNL1        0.2922
     49 H          11.4548    1.6502    0.0000 H       1  UNL1        0.0575
     50 H          10.6061   -2.8531    0.0000 H       1  UNL1        0.2921
     51 H          12.3266    0.1535    0.0000 H       1  UNL1        0.2921
     52 H          12.0889    2.9257    0.0000 H       1  UNL1        0.0274
     53 H          10.3528    3.9929    0.0000 H       1  UNL1        0.0274
     54 H           9.5067    3.7627    0.0000 H       1  UNL1        0.0274
     55 H           9.7369    2.9166    0.0000 H       1  UNL1        0.0274
     56 H          12.3126    3.7735    0.0000 H       1  UNL1        0.0274
     57 H          11.4648    3.9972    0.0000 H       1  UNL1        0.0274
@<TRIPOS>BOND
     1     1     9    1
     2     1    13    1
     3     2    11    1
     4     2    15    1
     5     3    10    2
     6     4    16    1
     7     4    48    1
     8     5    21    1
     9     5    50    1
    10     6    26    1
    11     6    51    1
    12     7     9    1
    13     7    10    1
    14     7    12    1
    15     7    32    1
    16     8    10    1
    17     8    13   ar
    18     8    16   ar
    19     9    33    1
    20     9    34    1
    21    11    18    1
    22    11    22    1
    23    11    23    1
    24    12    20   ar
    25    12    21   ar
    26    13    17   ar
    27    14    15   ar
    28    14    16   ar
    29    14    19    1
    30    15    17   ar
    31    17    35    1
    32    18    19    2
    33    18    36    1
    34    19    37    1
    35    20    24   ar
    36    20    38    1
    37    21    25   ar
    38    22    39    1
    39    22    40    1
    40    22    41    1
    41    23    42    1
    42    23    43    1
    43    23    44    1
    44    24    26   ar
    45    24    27    1
    46    25    26   ar
    47    25    45    1
    48    27    28    1
    49    27    46    1
    50    27    47    1
    51    28    29    2
    52    28    49    1
    53    29    30    1
    54    29    31    1
    55    30    52    1
    56    30    56    1
    57    30    57    1
    58    31    53    1
    59    31    54    1
    60    31    55    1
