@<TRIPOS>MOLECULE
IMPHY006177
 31 30 0 0 0
SMALL
GASTEIGER

@<TRIPOS>ATOM
      1 O           8.9282    0.4400    0.0000 O.3     1  UNL1       -0.4649
      2 O           8.0622   -1.0600    0.0000 O.2     1  UNL1       -0.2456
      3 C           5.4641    0.4400    0.0000 C.3     1  UNL1       -0.0281
      4 C           4.5981   -0.0600    0.0000 C.3     1  UNL1       -0.0308
      5 C           6.3301   -0.0600    0.0000 C.2     1  UNL1       -0.0656
      6 C           3.7320    0.4400    0.0000 C.2     1  UNL1       -0.0850
      7 C           2.8660   -0.0600    0.0000 C.2     1  UNL1       -0.0796
      8 C           6.3301   -1.0600    0.0000 C.3     1  UNL1       -0.0433
      9 C           7.1962    0.4400    0.0000 C.2     1  UNL1        0.0215
     10 C           2.0000    0.4400    0.0000 C.3     1  UNL1       -0.0440
     11 C           2.8660   -1.0600    0.0000 C.3     1  UNL1       -0.0440
     12 C           8.0622   -0.0600    0.0000 C.2     1  UNL1        0.3316
     13 C           9.7942   -0.0600    0.0000 C.3     1  UNL1        0.0820
     14 H           5.8626    0.9149    0.0000 H       1  UNL1        0.0313
     15 H           5.0656    0.9149    0.0000 H       1  UNL1        0.0313
     16 H           4.1996   -0.5349    0.0000 H       1  UNL1        0.0310
     17 H           4.9966   -0.5349    0.0000 H       1  UNL1        0.0310
     18 H           3.7320    1.0600    0.0000 H       1  UNL1        0.0572
     19 H           5.7101   -1.0600    0.0000 H       1  UNL1        0.0274
     20 H           6.3301   -1.6800    0.0000 H       1  UNL1        0.0274
     21 H           6.9501   -1.0600    0.0000 H       1  UNL1        0.0274
     22 H           7.1962    1.0600    0.0000 H       1  UNL1        0.0688
     23 H           2.3100    0.9769    0.0000 H       1  UNL1        0.0274
     24 H           1.4631    0.7500    0.0000 H       1  UNL1        0.0274
     25 H           1.6900   -0.0969    0.0000 H       1  UNL1        0.0274
     26 H           2.2460   -1.0600    0.0000 H       1  UNL1        0.0274
     27 H           2.8660   -1.6800    0.0000 H       1  UNL1        0.0274
     28 H           3.4860   -1.0600    0.0000 H       1  UNL1        0.0274
     29 H           9.4842   -0.5969    0.0000 H       1  UNL1        0.0661
     30 H          10.3312   -0.3700    0.0000 H       1  UNL1        0.0661
     31 H          10.1042    0.4769    0.0000 H       1  UNL1        0.0661
@<TRIPOS>BOND
     1     1    12    1
     2     1    13    1
     3     2    12    2
     4     3     4    1
     5     3     5    1
     6     3    14    1
     7     3    15    1
     8     4     6    1
     9     4    16    1
    10     4    17    1
    11     5     8    1
    12     5     9    2
    13     6     7    2
    14     6    18    1
    15     7    10    1
    16     7    11    1
    17     8    19    1
    18     8    20    1
    19     8    21    1
    20     9    12    1
    21     9    22    1
    22    10    23    1
    23    10    24    1
    24    10    25    1
    25    11    26    1
    26    11    27    1
    27    11    28    1
    28    13    29    1
    29    13    30    1
    30    13    31    1
