@<TRIPOS>MOLECULE
IMPHY006493
 24 25 0 0 0
SMALL
GASTEIGER

@<TRIPOS>ATOM
      1 N           3.8200    0.9741    0.0000 N.3     1  UNL1       -0.2995
      2 C           3.3422   -0.9745    0.0000 C.3     1  UNL1        0.0105
      3 C           3.0833   -0.0085    0.0000 C.3     1  UNL1        0.0105
      4 C           1.9432   -1.4833    0.0000 C.3     1  UNL1       -0.0359
      5 C           1.6844   -0.5173    0.0000 C.3     1  UNL1       -0.0359
      6 C           4.5632   -1.8401    0.0000 C.3     1  UNL1       -0.0373
      7 C           5.1166   -0.3197    0.0000 C.3     1  UNL1       -0.0373
      8 C           5.3922   -1.2809    0.0000 C.3     1  UNL1       -0.0502
      9 C           4.3200    1.8401    0.0000 C.3     1  UNL1       -0.0122
     10 H           3.5622   -1.7955    0.0000 H       1  UNL1        0.0462
     11 H           2.8633    0.8125    0.0000 H       1  UNL1        0.0462
     12 H           2.1382   -2.0718    0.0000 H       1  UNL1        0.0281
     13 H           1.3492   -1.6610    0.0000 H       1  UNL1        0.0281
     14 H           1.0904   -0.6951    0.0000 H       1  UNL1        0.0281
     15 H           1.4895    0.0712    0.0000 H       1  UNL1        0.0281
     16 H           4.9690   -2.3088    0.0000 H       1  UNL1        0.0280
     17 H           4.1465   -2.2992    0.0000 H       1  UNL1        0.0280
     18 H           5.1216    0.3003    0.0000 H       1  UNL1        0.0280
     19 H           5.7309   -0.2359    0.0000 H       1  UNL1        0.0280
     20 H           5.9671   -1.0487    0.0000 H       1  UNL1        0.0266
     21 H           5.6833   -1.8284    0.0000 H       1  UNL1        0.0266
     22 H           3.7830    2.1501    0.0000 H       1  UNL1        0.0391
     23 H           4.6300    2.3770    0.0000 H       1  UNL1        0.0391
     24 H           4.8569    1.5301    0.0000 H       1  UNL1        0.0391
@<TRIPOS>BOND
     1     1     2    1
     2     1     3    1
     3     1     9    1
     4     2     4    1
     5     2     6    1
     6     2    10    1
     7     3     5    1
     8     3     7    1
     9     3    11    1
    10     4     5    1
    11     4    12    1
    12     4    13    1
    13     5    14    1
    14     5    15    1
    15     6     8    1
    16     6    16    1
    17     6    17    1
    18     7     8    1
    19     7    18    1
    20     7    19    1
    21     8    20    1
    22     8    21    1
    23     9    22    1
    24     9    23    1
    25     9    24    1
