@<TRIPOS>MOLECULE
IMPHY008309
 35 36 0 0 0
SMALL
GASTEIGER

@<TRIPOS>ATOM
      1 O           2.5369    1.0000    0.0000 O.3     1  UNL1       -0.5031
      2 O           2.5369   -1.0000    0.0000 O.3     1  UNL1       -0.5028
      3 O           6.0174   -2.0346    0.0000 O.3     1  UNL1       -0.5061
      4 O           3.4030   -2.5000    0.0000 O.2     1  UNL1       -0.2956
      5 C           4.2690    1.0000    0.0000 C.ar    1  UNL1        0.0081
      6 C           4.2690    2.0000    0.0000 C.3     1  UNL1       -0.0174
      7 C           5.1350    0.5000    0.0000 C.ar    1  UNL1       -0.0064
      8 C           5.1350   -0.5000    0.0000 C.ar    1  UNL1        0.0378
      9 C           3.4030    0.5000    0.0000 C.ar    1  UNL1        0.1630
     10 C           4.2690   -1.0000    0.0000 C.ar    1  UNL1        0.0704
     11 C           6.0290    1.0347    0.0000 C.ar    1  UNL1       -0.0505
     12 C           3.4030    2.5000    0.0000 C.3     1  UNL1       -0.0585
     13 C           5.1350    2.5000    0.0000 C.3     1  UNL1       -0.0585
     14 C           3.4030   -0.5000    0.0000 C.ar    1  UNL1        0.1696
     15 C           6.0290   -1.0347    0.0000 C.ar    1  UNL1        0.1256
     16 C           6.9350    0.5208    0.0000 C.ar    1  UNL1       -0.0464
     17 C           6.9350   -0.5208    0.0000 C.ar    1  UNL1       -0.0166
     18 C           7.7991    1.0241    0.0000 C.3     1  UNL1       -0.0396
     19 C           4.2690   -2.0000    0.0000 C.2     1  UNL1        0.1545
     20 H           4.2690    2.6200    0.0000 H       1  UNL1        0.0345
     21 H           6.0218    1.6546    0.0000 H       1  UNL1        0.0626
     22 H           3.7130    3.0369    0.0000 H       1  UNL1        0.0235
     23 H           2.8660    2.8100    0.0000 H       1  UNL1        0.0235
     24 H           3.0930    1.9631    0.0000 H       1  UNL1        0.0235
     25 H           5.4450    1.9631    0.0000 H       1  UNL1        0.0235
     26 H           5.6720    2.8100    0.0000 H       1  UNL1        0.0235
     27 H           4.8250    3.0369    0.0000 H       1  UNL1        0.0235
     28 H           7.4708   -0.8329    0.0000 H       1  UNL1        0.0657
     29 H           8.1112    0.4884    0.0000 H       1  UNL1        0.0278
     30 H           8.3348    1.3362    0.0000 H       1  UNL1        0.0278
     31 H           7.4870    1.5599    0.0000 H       1  UNL1        0.0278
     32 H           4.8059   -2.3100    0.0000 H       1  UNL1        0.1083
     33 H           2.0000    0.6900    0.0000 H       1  UNL1        0.2923
     34 H           2.0000   -0.6900    0.0000 H       1  UNL1        0.2923
     35 H           6.5507   -2.3508    0.0000 H       1  UNL1        0.2922
@<TRIPOS>BOND
     1     1     9    1
     2     1    33    1
     3     2    14    1
     4     2    34    1
     5     3    15    1
     6     3    35    1
     7     4    19    2
     8     5     6    1
     9     5     7   ar
    10     5     9   ar
    11     6    12    1
    12     6    13    1
    13     6    20    1
    14     7     8   ar
    15     7    11   ar
    16     8    10   ar
    17     8    15   ar
    18     9    14   ar
    19    10    14   ar
    20    10    19    1
    21    11    16   ar
    22    11    21    1
    23    12    22    1
    24    12    23    1
    25    12    24    1
    26    13    25    1
    27    13    26    1
    28    13    27    1
    29    15    17   ar
    30    16    17   ar
    31    16    18    1
    32    17    28    1
    33    18    29    1
    34    18    30    1
    35    18    31    1
    36    19    32    1
