@<TRIPOS>MOLECULE
IMPHY005708
 96 101 0 0 0
SMALL
GASTEIGER

@<TRIPOS>ATOM
      1 O           6.0010   -4.2500    0.0000 O.3     1  UNL1       -0.3401
      2 O           6.0010   -1.2500    0.0000 O.3     1  UNL1       -0.3431
      3 O           7.7331   -1.2500    0.0000 O.3     1  UNL1       -0.3461
      4 O           4.2690   -4.2500    0.0000 O.3     1  UNL1       -0.3431
      5 O           8.5991    1.2500    0.0000 O.3     1  UNL1       -0.3313
      6 O           7.7331   -3.2500    0.0000 O.3     1  UNL1       -0.3841
      7 O           4.2690   -3.2500    0.0000 O.3     1  UNL1       -0.3866
      8 O           6.0010   -6.2500    0.0000 O.3     1  UNL1       -0.3841
      9 O           4.2690   -7.2500    0.0000 O.3     1  UNL1       -0.3864
     10 O           2.5369   -6.2500    0.0000 O.3     1  UNL1       -0.3866
     11 O           9.4651   -1.2500    0.0000 O.3     1  UNL1       -0.3865
     12 O          11.1972   -0.2500    0.0000 O.3     1  UNL1       -0.3864
     13 O           9.4651    2.7500    0.0000 O.3     1  UNL1       -0.4532
     14 O          11.1972    1.7500    0.0000 O.3     1  UNL1       -0.3829
     15 O           7.7331    4.7500    0.0000 O.2     1  UNL1       -0.4507
     16 O           7.7331    1.7500    0.0000 O.2     1  UNL1       -0.2830
     17 O           5.9847    1.7154    0.0000 O.3     1  UNL1       -0.5058
     18 O           4.2030    4.7742    0.0000 O.3     1  UNL1       -0.4949
     19 O          10.3312    7.2500    0.0000 O.3     1  UNL1       -0.5033
     20 O          12.0632    6.2500    0.0000 O.3     1  UNL1       -0.5033
     21 C           6.0010   -3.2500    0.0000 C.3     1  UNL1        0.1205
     22 C           6.8671   -2.7500    0.0000 C.3     1  UNL1        0.1345
     23 C           5.1350   -2.7500    0.0000 C.3     1  UNL1        0.1098
     24 C           6.8671   -1.7500    0.0000 C.3     1  UNL1        0.1879
     25 C           5.1350   -1.7500    0.0000 C.3     1  UNL1        0.0873
     26 C           5.1350   -4.7500    0.0000 C.3     1  UNL1        0.1883
     27 C           5.1350   -5.7500    0.0000 C.3     1  UNL1        0.1341
     28 C           4.2690   -6.2500    0.0000 C.3     1  UNL1        0.1140
     29 C           8.5991    0.2500    0.0000 C.3     1  UNL1        0.1144
     30 C           3.4030   -5.7500    0.0000 C.3     1  UNL1        0.1095
     31 C           3.4030   -4.7500    0.0000 C.3     1  UNL1        0.0873
     32 C           9.4651   -0.2500    0.0000 C.3     1  UNL1        0.1120
     33 C          10.3312    0.2500    0.0000 C.3     1  UNL1        0.1152
     34 C           7.7331   -0.2500    0.0000 C.3     1  UNL1        0.0796
     35 C          10.3312    1.2500    0.0000 C.3     1  UNL1        0.1454
     36 C           9.4651    1.7500    0.0000 C.3     1  UNL1        0.2311
     37 C           4.2690   -1.2500    0.0000 C.3     1  UNL1       -0.0361
     38 C           2.5369   -4.2500    0.0000 C.3     1  UNL1       -0.0361
     39 C           8.5991    3.2500    0.0000 C.ar    1  UNL1        0.2138
     40 C           8.5991    4.2500    0.0000 C.ar    1  UNL1        0.1810
     41 C           7.7331    2.7500    0.0000 C.ar    1  UNL1        0.2382
     42 C           6.8671    3.2500    0.0000 C.ar    1  UNL1        0.1092
     43 C           9.4651    4.7500    0.0000 C.ar    1  UNL1        0.0247
     44 C           6.8671    4.2500    0.0000 C.ar    1  UNL1        0.1465
     45 C           5.9731    2.7153    0.0000 C.ar    1  UNL1        0.1348
     46 C           5.9731    4.7847    0.0000 C.ar    1  UNL1        0.0233
     47 C           9.4651    5.7500    0.0000 C.ar    1  UNL1       -0.0057
     48 C          10.3312    4.2500    0.0000 C.ar    1  UNL1       -0.0473
     49 C           5.0670    3.2292    0.0000 C.ar    1  UNL1        0.0225
     50 C           5.0670    4.2708    0.0000 C.ar    1  UNL1        0.1271
     51 C          10.3312    6.2500    0.0000 C.ar    1  UNL1        0.1589
     52 C          11.1972    4.7500    0.0000 C.ar    1  UNL1       -0.0159
     53 C          11.1972    5.7500    0.0000 C.ar    1  UNL1        0.1583
     54 C           3.3350    4.2775    0.0000 C.3     1  UNL1        0.0788
     55 H           6.5380   -3.5600    0.0000 H       1  UNL1        0.0651
     56 H           7.4040   -2.4400    0.0000 H       1  UNL1        0.0671
     57 H           4.5981   -2.4400    0.0000 H       1  UNL1        0.0646
     58 H           6.8671   -1.1300    0.0000 H       1  UNL1        0.0937
     59 H           5.1350   -1.1300    0.0000 H       1  UNL1        0.0621
     60 H           5.1350   -4.1300    0.0000 H       1  UNL1        0.0938
     61 H           5.1350   -6.3700    0.0000 H       1  UNL1        0.0671
     62 H           3.7320   -6.5600    0.0000 H       1  UNL1        0.0648
     63 H           8.0622    0.5600    0.0000 H       1  UNL1        0.0647
     64 H           2.8660   -5.4400    0.0000 H       1  UNL1        0.0646
     65 H           3.4030   -4.1300    0.0000 H       1  UNL1        0.0621
     66 H          10.0021   -0.5600    0.0000 H       1  UNL1        0.0647
     67 H          10.8681    0.5600    0.0000 H       1  UNL1        0.0648
     68 H           7.5210    0.3326    0.0000 H       1  UNL1        0.0587
     69 H           7.1225   -0.3577    0.0000 H       1  UNL1        0.0587
     70 H          10.3312    1.8700    0.0000 H       1  UNL1        0.0683
     71 H           8.9282    2.0600    0.0000 H       1  UNL1        0.1084
     72 H           4.5790   -0.7131    0.0000 H       1  UNL1        0.0255
     73 H           3.7320   -0.9400    0.0000 H       1  UNL1        0.0255
     74 H           3.9590   -1.7869    0.0000 H       1  UNL1        0.0255
     75 H           8.2700   -2.9400    0.0000 H       1  UNL1        0.2101
     76 H           3.7320   -2.9400    0.0000 H       1  UNL1        0.2100
     77 H           2.8469   -3.7131    0.0000 H       1  UNL1        0.0255
     78 H           2.0000   -3.9400    0.0000 H       1  UNL1        0.0255
     79 H           2.2269   -4.7869    0.0000 H       1  UNL1        0.0255
     80 H           6.0010   -6.8700    0.0000 H       1  UNL1        0.2101
     81 H           3.7320   -7.5600    0.0000 H       1  UNL1        0.2100
     82 H           2.0000   -5.9400    0.0000 H       1  UNL1        0.2100
     83 H          10.0021   -1.5600    0.0000 H       1  UNL1        0.2100
     84 H          11.7341    0.0600    0.0000 H       1  UNL1        0.2100
     85 H          11.1972    2.3700    0.0000 H       1  UNL1        0.2102
     86 H           5.9803    5.4046    0.0000 H       1  UNL1        0.0691
     87 H           8.9282    6.0600    0.0000 H       1  UNL1        0.0662
     88 H          10.3312    3.6300    0.0000 H       1  UNL1        0.0626
     89 H           4.5313    2.9171    0.0000 H       1  UNL1        0.0691
     90 H          11.7341    4.4400    0.0000 H       1  UNL1        0.0655
     91 H           5.4514    1.3992    0.0000 H       1  UNL1        0.2922
     92 H           9.7942    7.5600    0.0000 H       1  UNL1        0.2923
     93 H           3.0271    4.8156    0.0000 H       1  UNL1        0.0660
     94 H           2.7969    3.9696    0.0000 H       1  UNL1        0.0660
     95 H           3.6429    3.7394    0.0000 H       1  UNL1        0.0660
     96 H          12.6002    5.9400    0.0000 H       1  UNL1        0.2923
@<TRIPOS>BOND
     1     1    21    1
     2     1    26    1
     3     2    24    1
     4     2    25    1
     5     3    24    1
     6     3    34    1
     7     4    26    1
     8     4    31    1
     9     5    29    1
    10     5    36    1
    11     6    22    1
    12     6    75    1
    13     7    23    1
    14     7    76    1
    15     8    27    1
    16     8    80    1
    17     9    28    1
    18     9    81    1
    19    10    30    1
    20    10    82    1
    21    11    32    1
    22    11    83    1
    23    12    33    1
    24    12    84    1
    25    13    36    1
    26    13    39    1
    27    14    35    1
    28    14    85    1
    29    15    40   ar
    30    15    44   ar
    31    16    41    2
    32    17    45    1
    33    17    91    1
    34    18    50    1
    35    18    54    1
    36    19    51    1
    37    19    92    1
    38    20    53    1
    39    20    96    1
    40    21    22    1
    41    21    23    1
    42    21    55    1
    43    22    24    1
    44    22    56    1
    45    23    25    1
    46    23    57    1
    47    24    58    1
    48    25    37    1
    49    25    59    1
    50    26    27    1
    51    26    60    1
    52    27    28    1
    53    27    61    1
    54    28    30    1
    55    28    62    1
    56    29    32    1
    57    29    34    1
    58    29    63    1
    59    30    31    1
    60    30    64    1
    61    31    38    1
    62    31    65    1
    63    32    33    1
    64    32    66    1
    65    33    35    1
    66    33    67    1
    67    34    68    1
    68    34    69    1
    69    35    36    1
    70    35    70    1
    71    36    71    1
    72    37    72    1
    73    37    73    1
    74    37    74    1
    75    38    77    1
    76    38    78    1
    77    38    79    1
    78    39    40   ar
    79    39    41   ar
    80    40    43    1
    81    41    42   ar
    82    42    44   ar
    83    42    45   ar
    84    43    47   ar
    85    43    48   ar
    86    44    46   ar
    87    45    49   ar
    88    46    50   ar
    89    46    86    1
    90    47    51   ar
    91    47    87    1
    92    48    52   ar
    93    48    88    1
    94    49    50   ar
    95    49    89    1
    96    51    53   ar
    97    52    53   ar
    98    52    90    1
    99    54    93    1
   100    54    94    1
   101    54    95    1
