@<TRIPOS>MOLECULE
IMPHY005816
 19 18 0 0 0
SMALL
GASTEIGER

@<TRIPOS>ATOM
      1 S           4.5981   -0.0600    0.0000 S.O     1  UNL1        0.1100
      2 S           5.4641    0.4400    0.0000 S.3     1  UNL1       -0.0288
      3 O           4.5981   -1.0600    0.0000 O.2     1  UNL1       -0.2410
      4 C           2.8660   -0.0600    0.0000 C.2     1  UNL1       -0.0777
      5 C           3.7320    0.4400    0.0000 C.2     1  UNL1        0.0092
      6 C           2.0000    0.4400    0.0000 C.3     1  UNL1       -0.0460
      7 C           7.1962    0.4400    0.0000 C.2     1  UNL1       -0.0800
      8 C           6.3301   -0.0600    0.0000 C.2     1  UNL1       -0.0194
      9 C           8.0622   -0.0600    0.0000 C.3     1  UNL1       -0.0460
     10 H           2.8660   -0.6800    0.0000 H       1  UNL1        0.0575
     11 H           3.7320    1.0600    0.0000 H       1  UNL1        0.0720
     12 H           2.3100    0.9769    0.0000 H       1  UNL1        0.0272
     13 H           1.4631    0.7500    0.0000 H       1  UNL1        0.0272
     14 H           1.6900   -0.0969    0.0000 H       1  UNL1        0.0272
     15 H           7.1962    1.0600    0.0000 H       1  UNL1        0.0574
     16 H           6.3301   -0.6800    0.0000 H       1  UNL1        0.0696
     17 H           7.7522   -0.5969    0.0000 H       1  UNL1        0.0272
     18 H           8.5991   -0.3700    0.0000 H       1  UNL1        0.0272
     19 H           8.3722    0.4769    0.0000 H       1  UNL1        0.0272
@<TRIPOS>BOND
     1     1     2    1
     2     1     3    2
     3     1     5    1
     4     2     8    1
     5     4     5    2
     6     4     6    1
     7     4    10    1
     8     5    11    1
     9     6    12    1
    10     6    13    1
    11     6    14    1
    12     7     8    2
    13     7     9    1
    14     7    15    1
    15     8    16    1
    16     9    17    1
    17     9    18    1
    18     9    19    1
