@<TRIPOS>MOLECULE
IMPHY009265
 38 40 0 0 0
SMALL
GASTEIGER

@<TRIPOS>ATOM
      1 O           6.3580   -0.9259    0.0000 O.3     1  UNL1       -0.4828
      2 O           6.3465    2.1433    0.0000 O.2     1  UNL1       -0.2917
      3 O           4.5981    2.1087    0.0000 O.3     1  UNL1       -0.5027
      4 O           2.8660    1.1087    0.0000 O.3     1  UNL1       -0.4885
      5 O           2.8660   -0.8913    0.0000 O.3     1  UNL1       -0.4912
      6 C           7.2641   -0.4121    0.0000 C.3     1  UNL1        0.1322
      7 C           7.2641    0.6296    0.0000 C.3     1  UNL1        0.0520
      8 C           5.4641    0.6087    0.0000 C.ar    1  UNL1        0.1043
      9 C           5.4641   -0.3913    0.0000 C.ar    1  UNL1        0.1391
     10 C           6.3580    1.1434    0.0000 C.2     1  UNL1        0.1741
     11 C           8.1282   -0.9154    0.0000 C.ar    1  UNL1       -0.0069
     12 C           4.5981    1.1087    0.0000 C.ar    1  UNL1        0.1764
     13 C           4.5981   -0.8913    0.0000 C.ar    1  UNL1        0.0264
     14 C           3.7320    0.6087    0.0000 C.ar    1  UNL1        0.2042
     15 C           3.7320   -0.3913    0.0000 C.ar    1  UNL1        0.1687
     16 C           8.1244   -1.9154    0.0000 C.ar    1  UNL1       -0.0551
     17 C           8.9962   -0.4188    0.0000 C.ar    1  UNL1       -0.0551
     18 C           8.9884   -2.4187    0.0000 C.ar    1  UNL1       -0.0614
     19 C           9.8602   -0.9221    0.0000 C.ar    1  UNL1       -0.0614
     20 C           9.8564   -1.9221    0.0000 C.ar    1  UNL1       -0.0617
     21 C           2.0000    0.6087    0.0000 C.3     1  UNL1        0.0791
     22 C           2.8660   -1.8913    0.0000 C.3     1  UNL1        0.0790
     23 H           7.2605   -1.0321    0.0000 H       1  UNL1        0.0789
     24 H           7.8750    0.5235    0.0000 H       1  UNL1        0.0385
     25 H           7.4732    1.2132    0.0000 H       1  UNL1        0.0385
     26 H           4.5981   -1.5113    0.0000 H       1  UNL1        0.0692
     27 H           7.5862   -2.2233    0.0000 H       1  UNL1        0.0621
     28 H           8.9985    0.2012    0.0000 H       1  UNL1        0.0621
     29 H           8.9860   -3.0387    0.0000 H       1  UNL1        0.0618
     30 H          10.3984   -0.6142    0.0000 H       1  UNL1        0.0618
     31 H          10.3921   -2.2342    0.0000 H       1  UNL1        0.0618
     32 H           4.0611    2.4187    0.0000 H       1  UNL1        0.2923
     33 H           1.6900    1.1457    0.0000 H       1  UNL1        0.0660
     34 H           1.4631    0.2987    0.0000 H       1  UNL1        0.0660
     35 H           2.3100    0.0718    0.0000 H       1  UNL1        0.0660
     36 H           2.2460   -1.8913    0.0000 H       1  UNL1        0.0660
     37 H           2.8660   -2.5113    0.0000 H       1  UNL1        0.0660
     38 H           3.4860   -1.8913    0.0000 H       1  UNL1        0.0660
@<TRIPOS>BOND
     1     1     6    1
     2     1     9    1
     3     2    10    2
     4     3    12    1
     5     3    32    1
     6     4    14    1
     7     4    21    1
     8     5    15    1
     9     5    22    1
    10     6     7    1
    11     6    11    1
    12     6    23    1
    13     7    10    1
    14     7    24    1
    15     7    25    1
    16     8     9   ar
    17     8    10    1
    18     8    12   ar
    19     9    13   ar
    20    11    16   ar
    21    11    17   ar
    22    12    14   ar
    23    13    15   ar
    24    13    26    1
    25    14    15   ar
    26    16    18   ar
    27    16    27    1
    28    17    19   ar
    29    17    28    1
    30    18    20   ar
    31    18    29    1
    32    19    20   ar
    33    19    30    1
    34    20    31    1
    35    21    33    1
    36    21    34    1
    37    21    35    1
    38    22    36    1
    39    22    37    1
    40    22    38    1
