@<TRIPOS>MOLECULE
IMPHY009620
 78 83 0 0 0
SMALL
GASTEIGER

@<TRIPOS>ATOM
      1 O           8.7297    2.0599    0.0000 O.3     1  UNL1       -0.3417
      2 O           8.1158    1.3183    0.0000 O.3     1  UNL1       -0.3850
      3 O           9.3560    0.3372    0.0000 O.3     1  UNL1       -0.3639
      4 O           8.6110    4.9478    0.0000 O.3     1  UNL1       -0.3885
      5 O           6.0010   -2.2371    0.0000 O.3     1  UNL1       -0.3484
      6 O           4.2690   -2.2371    0.0000 O.3     1  UNL1       -0.3405
      7 O           6.0010   -4.2371    0.0000 O.3     1  UNL1       -0.3841
      8 O           4.2690   -5.2371    0.0000 O.3     1  UNL1       -0.3864
      9 O           2.5369   -4.2371    0.0000 O.3     1  UNL1       -0.3865
     10 O           2.5369   -1.2371    0.0000 O.3     1  UNL1       -0.3924
     11 C           7.1716    1.6478    0.0000 C.3     1  UNL1        0.1063
     12 C           7.7117    0.8132    0.0000 C.3     1  UNL1        0.0562
     13 C           6.1846    1.8083    0.0000 C.3     1  UNL1       -0.0029
     14 C           5.8300    2.7433    0.0000 C.3     1  UNL1       -0.0184
     15 C           7.8041    2.4223    0.0000 C.3     1  UNL1        0.0972
     16 C           8.6728    1.0674    0.0000 C.3     1  UNL1        0.1765
     17 C           6.4625    3.5179    0.0000 C.3     1  UNL1       -0.0271
     18 C           7.4496    3.3574    0.0000 C.3     1  UNL1        0.0200
     19 C           6.8671    0.2629    0.0000 C.3     1  UNL1       -0.0230
     20 C           6.7676    1.0847    0.0000 C.3     1  UNL1        0.0079
     21 C           6.0224    0.8132    0.0000 C.3     1  UNL1       -0.0431
     22 C           7.9022    4.2424    0.0000 C.3     1  UNL1        0.0689
     23 C           6.3136    4.5007    0.0000 C.3     1  UNL1       -0.0467
     24 C           7.3512   -0.1195    0.0000 C.3     1  UNL1       -0.0516
     25 C           4.8336    2.8283    0.0000 C.3     1  UNL1       -0.0588
     26 C           7.2016    4.9476    0.0000 C.3     1  UNL1       -0.0236
     27 C           6.8671   -0.7371    0.0000 C.3     1  UNL1       -0.0167
     28 C           8.7921    3.7863    0.0000 C.3     1  UNL1       -0.0357
     29 C           6.0010   -1.2371    0.0000 C.3     1  UNL1        0.0536
     30 C           7.7331   -1.2371    0.0000 C.3     1  UNL1       -0.0601
     31 C           5.1350   -2.7371    0.0000 C.3     1  UNL1        0.1879
     32 C           5.1350   -3.7371    0.0000 C.3     1  UNL1        0.1341
     33 C           4.2690   -4.2371    0.0000 C.3     1  UNL1        0.1141
     34 C           3.4030   -2.7371    0.0000 C.3     1  UNL1        0.1130
     35 C           3.4030   -3.7371    0.0000 C.3     1  UNL1        0.1119
     36 C           2.5369   -2.2371    0.0000 C.3     1  UNL1        0.0730
     37 H           5.5677    1.7461    0.0000 H       1  UNL1        0.0335
     38 H           7.9613    1.8226    0.0000 H       1  UNL1        0.0630
     39 H           5.8645    3.6816    0.0000 H       1  UNL1        0.0311
     40 H           8.0686    3.3232    0.0000 H       1  UNL1        0.0357
     41 H           6.3220   -0.0325    0.0000 H       1  UNL1        0.0312
     42 H           6.1831    0.8780    0.0000 H       1  UNL1        0.0323
     43 H           6.8697    0.4732    0.0000 H       1  UNL1        0.0323
     44 H           5.4301    0.9966    0.0000 H       1  UNL1        0.0272
     45 H           5.7590    0.2520    0.0000 H       1  UNL1        0.0272
     46 H           6.0946    5.0808    0.0000 H       1  UNL1        0.0269
     47 H           5.7138    4.3439    0.0000 H       1  UNL1        0.0269
     48 H           6.7729    0.1041    0.0000 H       1  UNL1        0.0238
     49 H           7.1276   -0.6978    0.0000 H       1  UNL1        0.0238
     50 H           7.9294   -0.3430    0.0000 H       1  UNL1        0.0238
     51 H           4.8864    3.4461    0.0000 H       1  UNL1        0.0235
     52 H           4.2159    2.8811    0.0000 H       1  UNL1        0.0235
     53 H           4.7809    2.2106    0.0000 H       1  UNL1        0.0235
     54 H           7.6849    5.3360    0.0000 H       1  UNL1        0.0293
     55 H           6.8662    5.4691    0.0000 H       1  UNL1        0.0293
     56 H           6.8671   -1.3571    0.0000 H       1  UNL1        0.0323
     57 H           8.2316    0.7092    0.0000 H       1  UNL1        0.2103
     58 H           9.9599    0.4777    0.0000 H       1  UNL1        0.2128
     59 H           8.5094    3.2346    0.0000 H       1  UNL1        0.0257
     60 H           9.3439    3.5035    0.0000 H       1  UNL1        0.0257
     61 H           9.0749    4.3381    0.0000 H       1  UNL1        0.0257
     62 H           5.7890   -0.6545    0.0000 H       1  UNL1        0.0563
     63 H           5.3905   -1.3447    0.0000 H       1  UNL1        0.0563
     64 H           7.4231   -1.7740    0.0000 H       1  UNL1        0.0233
     65 H           8.2700   -1.5471    0.0000 H       1  UNL1        0.0233
     66 H           8.0431   -0.7002    0.0000 H       1  UNL1        0.0233
     67 H           8.4520    5.5471    0.0000 H       1  UNL1        0.2102
     68 H           5.1350   -2.1171    0.0000 H       1  UNL1        0.0937
     69 H           5.1350   -4.3571    0.0000 H       1  UNL1        0.0671
     70 H           3.7320   -4.5471    0.0000 H       1  UNL1        0.0648
     71 H           3.4030   -2.1171    0.0000 H       1  UNL1        0.0647
     72 H           3.4030   -4.3571    0.0000 H       1  UNL1        0.0647
     73 H           6.5380   -3.9271    0.0000 H       1  UNL1        0.2101
     74 H           1.9264   -2.1294    0.0000 H       1  UNL1        0.0584
     75 H           2.3249   -2.8197    0.0000 H       1  UNL1        0.0584
     76 H           3.7320   -5.5471    0.0000 H       1  UNL1        0.2100
     77 H           2.0000   -3.9271    0.0000 H       1  UNL1        0.2100
     78 H           2.0000   -0.9271    0.0000 H       1  UNL1        0.2095
@<TRIPOS>BOND
     1     1    15    1
     2     1    16    1
     3     2    11    1
     4     2    57    1
     5     3    16    1
     6     3    58    1
     7     4    22    1
     8     4    67    1
     9     5    29    1
    10     5    31    1
    11     6    31    1
    12     6    34    1
    13     7    32    1
    14     7    73    1
    15     8    33    1
    16     8    76    1
    17     9    35    1
    18     9    77    1
    19    10    36    1
    20    10    78    1
    21    11    12    1
    22    11    13    1
    23    11    15    1
    24    12    16    1
    25    12    19    1
    26    12    24    1
    27    13    14    1
    28    13    21    1
    29    13    37    1
    30    14    17    1
    31    14    20    1
    32    14    25    1
    33    15    18    1
    34    15    38    1
    35    16    20    1
    36    17    18    1
    37    17    23    1
    38    17    39    1
    39    18    22    1
    40    18    40    1
    41    19    21    1
    42    19    27    1
    43    19    41    1
    44    20    42    1
    45    20    43    1
    46    21    44    1
    47    21    45    1
    48    22    26    1
    49    22    28    1
    50    23    26    1
    51    23    46    1
    52    23    47    1
    53    24    48    1
    54    24    49    1
    55    24    50    1
    56    25    51    1
    57    25    52    1
    58    25    53    1
    59    26    54    1
    60    26    55    1
    61    27    29    1
    62    27    30    1
    63    27    56    1
    64    28    59    1
    65    28    60    1
    66    28    61    1
    67    29    62    1
    68    29    63    1
    69    30    64    1
    70    30    65    1
    71    30    66    1
    72    31    32    1
    73    31    68    1
    74    32    33    1
    75    32    69    1
    76    33    35    1
    77    33    70    1
    78    34    35    1
    79    34    36    1
    80    34    71    1
    81    35    72    1
    82    36    74    1
    83    36    75    1
