@<TRIPOS>MOLECULE
IMPHY016144
 25 24 0 0 0
SMALL
GASTEIGER

@<TRIPOS>ATOM
      1 S           4.5981    0.7500    0.0000 S.3     1  UNL1       -0.0900
      2 S           5.4641    0.2500    0.0000 S.3     1  UNL1       -0.0929
      3 C           3.7320    0.2500    0.0000 C.3     1  UNL1        0.0124
      4 C           2.8660    0.7500    0.0000 C.3     1  UNL1       -0.0435
      5 C           3.7320   -0.7500    0.0000 C.3     1  UNL1       -0.0525
      6 C           2.0000    0.2500    0.0000 C.3     1  UNL1       -0.0643
      7 C           6.3301    0.7500    0.0000 C.3     1  UNL1        0.0037
      8 C           7.1962    0.2500    0.0000 C.3     1  UNL1       -0.0461
      9 C           8.0622    0.7500    0.0000 C.3     1  UNL1       -0.0645
     10 H           4.2690   -0.0600    0.0000 H       1  UNL1        0.0417
     11 H           3.2646    1.2250    0.0000 H       1  UNL1        0.0273
     12 H           2.4675    1.2250    0.0000 H       1  UNL1        0.0273
     13 H           3.1120   -0.7500    0.0000 H       1  UNL1        0.0241
     14 H           3.7320   -1.3700    0.0000 H       1  UNL1        0.0241
     15 H           4.3520   -0.7500    0.0000 H       1  UNL1        0.0241
     16 H           1.6900    0.7869    0.0000 H       1  UNL1        0.0230
     17 H           1.4631   -0.0600    0.0000 H       1  UNL1        0.0230
     18 H           2.3100   -0.2869    0.0000 H       1  UNL1        0.0230
     19 H           6.7287    1.2250    0.0000 H       1  UNL1        0.0384
     20 H           5.9316    1.2250    0.0000 H       1  UNL1        0.0384
     21 H           6.7976   -0.2249    0.0000 H       1  UNL1        0.0271
     22 H           7.5947   -0.2249    0.0000 H       1  UNL1        0.0271
     23 H           8.3722    0.2131    0.0000 H       1  UNL1        0.0230
     24 H           8.5991    1.0600    0.0000 H       1  UNL1        0.0230
     25 H           7.7522    1.2869    0.0000 H       1  UNL1        0.0230
@<TRIPOS>BOND
     1     1     2    1
     2     1     3    1
     3     2     7    1
     4     3     4    1
     5     3     5    1
     6     3    10    1
     7     4     6    1
     8     4    11    1
     9     4    12    1
    10     5    13    1
    11     5    14    1
    12     5    15    1
    13     6    16    1
    14     6    17    1
    15     6    18    1
    16     7     8    1
    17     7    19    1
    18     7    20    1
    19     8     9    1
    20     8    21    1
    21     8    22    1
    22     9    23    1
    23     9    24    1
    24     9    25    1
