@<TRIPOS>MOLECULE
IMPHY005167
 157 165 0 0 0
SMALL
GASTEIGER

@<TRIPOS>ATOM
      1 O          10.8882    1.3555    0.0000 O.2     1  UNL1       -0.4925
      2 O           9.4651   -6.8886    0.0000 O.3     1  UNL1       -0.3454
      3 O           7.7331   -6.8886    0.0000 O.3     1  UNL1       -0.3405
      4 O           9.4651   -8.8886    0.0000 O.3     1  UNL1       -0.3378
      5 O           7.7331   -9.8886    0.0000 O.3     1  UNL1       -0.3864
      6 O           6.0010   -8.8886    0.0000 O.3     1  UNL1       -0.3401
      7 O          11.3225    6.0093    0.0000 O.3     1  UNL1       -0.3484
      8 O          10.3312   -7.3886    0.0000 O.3     1  UNL1       -0.3431
      9 O           6.0010   -5.8886    0.0000 O.3     1  UNL1       -0.3924
     10 O           5.1350   -7.3886    0.0000 O.3     1  UNL1       -0.3405
     11 O          11.1972   -9.8886    0.0000 O.3     1  UNL1       -0.3841
     12 O          12.0223    7.5937    0.0000 O.3     1  UNL1       -0.3405
     13 O          12.9292   -8.8886    0.0000 O.3     1  UNL1       -0.3864
     14 O           4.2690   -9.8886    0.0000 O.3     1  UNL1       -0.3841
     15 O          12.9292   -6.8886    0.0000 O.3     1  UNL1       -0.3866
     16 O          13.1521    5.2013    0.0000 O.3     1  UNL1       -0.3841
     17 O           2.5369   -8.8886    0.0000 O.3     1  UNL1       -0.3864
     18 O          14.7666    6.3817    0.0000 O.3     1  UNL1       -0.3864
     19 O           2.5369   -6.8886    0.0000 O.3     1  UNL1       -0.3865
     20 O          14.5516    8.3701    0.0000 O.3     1  UNL1       -0.3865
     21 O           3.4030   -5.3886    0.0000 O.3     1  UNL1       -0.3924
     22 O          11.8073    9.5822    0.0000 O.3     1  UNL1       -0.3924
     23 C          10.3623   -1.1884    0.0000 C.3     1  UNL1       -0.0285
     24 C           9.4944   -0.6917    0.0000 C.3     1  UNL1       -0.0189
     25 C          10.3662   -2.1883    0.0000 C.3     1  UNL1       -0.0342
     26 C           9.5021   -2.6917    0.0000 C.3     1  UNL1       -0.0323
     27 C           9.4901   -3.7332    0.0000 C.3     1  UNL1       -0.0260
     28 C           9.6999    0.2809    0.0000 C.3     1  UNL1        0.0259
     29 C           8.6303   -1.1950    0.0000 C.3     1  UNL1       -0.0464
     30 C          10.3901   -4.2575    0.0000 C.3     1  UNL1       -0.0330
     31 C           8.6342   -2.1950    0.0000 C.3     1  UNL1       -0.0489
     32 C          11.0968   -0.5184    0.0000 C.3     1  UNL1       -0.0116
     33 C          10.6882    0.3878    0.0000 C.3     1  UNL1        0.1071
     34 C          11.2781   -2.6917    0.0000 C.3     1  UNL1       -0.0494
     35 C          11.2902   -3.7332    0.0000 C.3     1  UNL1       -0.0494
     36 C           8.5402   -4.2575    0.0000 C.3     1  UNL1       -0.0448
     37 C           8.6264   -0.1950    0.0000 C.3     1  UNL1       -0.0586
     38 C          10.4027   -5.3424    0.0000 C.3     1  UNL1       -0.0232
     39 C           9.2976    1.1835    0.0000 C.2     1  UNL1       -0.0281
     40 C           8.6260   -3.2299    0.0000 C.3     1  UNL1       -0.0590
     41 C           8.5276   -5.3424    0.0000 C.3     1  UNL1       -0.0260
     42 C           9.4651   -5.8886    0.0000 C.3     1  UNL1        0.0621
     43 C          10.0305    1.8463    0.0000 C.2     1  UNL1        0.0975
     44 C           8.3192    1.3902    0.0000 C.3     1  UNL1       -0.0400
     45 C           9.9230    2.8405    0.0000 C.3     1  UNL1        0.0052
     46 C          10.7303    3.4307    0.0000 C.3     1  UNL1       -0.0415
     47 C           8.5991   -7.3886    0.0000 C.3     1  UNL1        0.1886
     48 C           8.5991   -8.3886    0.0000 C.3     1  UNL1        0.1406
     49 C          10.6228    4.4249    0.0000 C.3     1  UNL1       -0.0199
     50 C           7.7331   -8.8886    0.0000 C.3     1  UNL1        0.1148
     51 C           6.8671   -7.3886    0.0000 C.3     1  UNL1        0.1134
     52 C           6.8671   -8.3886    0.0000 C.3     1  UNL1        0.1184
     53 C          11.4300    5.0151    0.0000 C.3     1  UNL1        0.0533
     54 C           9.7080    4.8289    0.0000 C.3     1  UNL1       -0.0603
     55 C           6.0010   -6.8886    0.0000 C.3     1  UNL1        0.0730
     56 C          10.3312   -8.3886    0.0000 C.3     1  UNL1        0.1884
     57 C          11.1972   -8.8886    0.0000 C.3     1  UNL1        0.1341
     58 C           5.1350   -8.3886    0.0000 C.3     1  UNL1        0.1884
     59 C          12.1298    6.5995    0.0000 C.3     1  UNL1        0.1879
     60 C          12.0632   -8.3886    0.0000 C.3     1  UNL1        0.1140
     61 C          11.1972   -6.8886    0.0000 C.3     1  UNL1        0.0873
     62 C           4.2690   -8.8886    0.0000 C.3     1  UNL1        0.1341
     63 C          12.0632   -7.3886    0.0000 C.3     1  UNL1        0.1095
     64 C          13.0446    6.1955    0.0000 C.3     1  UNL1        0.1341
     65 C           3.4030   -8.3886    0.0000 C.3     1  UNL1        0.1141
     66 C           4.2690   -6.8886    0.0000 C.3     1  UNL1        0.1130
     67 C          13.8518    6.7857    0.0000 C.3     1  UNL1        0.1141
     68 C           3.4030   -7.3886    0.0000 C.3     1  UNL1        0.1119
     69 C          12.8296    8.1839    0.0000 C.3     1  UNL1        0.1130
     70 C          11.1972   -5.8886    0.0000 C.3     1  UNL1       -0.0361
     71 C          13.7443    7.7799    0.0000 C.3     1  UNL1        0.1119
     72 C           4.2690   -5.8886    0.0000 C.3     1  UNL1        0.0730
     73 C          12.7221    9.1782    0.0000 C.3     1  UNL1        0.0730
     74 H          11.1406   -1.5301    0.0000 H       1  UNL1        0.0310
     75 H          11.0974   -1.7548    0.0000 H       1  UNL1        0.0306
     76 H          10.2366   -3.1195    0.0000 H       1  UNL1        0.0309
     77 H           8.8546    0.1914    0.0000 H       1  UNL1        0.0388
     78 H           8.4160   -0.6132    0.0000 H       1  UNL1        0.0271
     79 H           8.0201   -1.3050    0.0000 H       1  UNL1        0.0271
     80 H          11.1295   -4.6768    0.0000 H       1  UNL1        0.0307
     81 H           8.0232   -2.0897    0.0000 H       1  UNL1        0.0268
     82 H           8.4244   -2.7784    0.0000 H       1  UNL1        0.0268
     83 H          11.4642   -1.0179    0.0000 H       1  UNL1        0.0304
     84 H          11.6321   -0.2056    0.0000 H       1  UNL1        0.0304
     85 H          11.5330    0.4810    0.0000 H       1  UNL1        0.0739
     86 H          11.8902   -2.7907    0.0000 H       1  UNL1        0.0268
     87 H          11.4804   -2.1056    0.0000 H       1  UNL1        0.0268
     88 H          11.5060   -4.3145    0.0000 H       1  UNL1        0.0268
     89 H          11.8998   -3.6201    0.0000 H       1  UNL1        0.0268
     90 H           8.3379   -3.6714    0.0000 H       1  UNL1        0.0271
     91 H           7.9281   -4.3565    0.0000 H       1  UNL1        0.0271
     92 H           8.9344    0.3431    0.0000 H       1  UNL1        0.0235
     93 H           8.0883    0.1129    0.0000 H       1  UNL1        0.0235
     94 H           8.3185   -0.7332    0.0000 H       1  UNL1        0.0235
     95 H          10.6185   -5.9237    0.0000 H       1  UNL1        0.0293
     96 H          11.0123   -5.2293    0.0000 H       1  UNL1        0.0293
     97 H           8.9380   -2.6942    0.0000 H       1  UNL1        0.0235
     98 H           8.0902   -2.9178    0.0000 H       1  UNL1        0.0235
     99 H           8.3139   -3.7656    0.0000 H       1  UNL1        0.0235
    100 H           7.9180   -5.2293    0.0000 H       1  UNL1        0.0290
    101 H           8.3118   -5.9237    0.0000 H       1  UNL1        0.0290
    102 H          10.0027   -6.1975    0.0000 H       1  UNL1        0.0597
    103 H           8.4473    1.9968    0.0000 H       1  UNL1        0.0276
    104 H           7.7125    1.5184    0.0000 H       1  UNL1        0.0276
    105 H           8.1910    0.7836    0.0000 H       1  UNL1        0.0276
    106 H           9.6496    3.3970    0.0000 H       1  UNL1        0.0343
    107 H           9.3276    2.6678    0.0000 H       1  UNL1        0.0343
    108 H          11.0037    2.8743    0.0000 H       1  UNL1        0.0273
    109 H          11.3258    3.6034    0.0000 H       1  UNL1        0.0273
    110 H           8.5991   -6.7686    0.0000 H       1  UNL1        0.0938
    111 H           8.5991   -9.0086    0.0000 H       1  UNL1        0.0675
    112 H          10.1223    4.0590    0.0000 H       1  UNL1        0.0320
    113 H           7.1962   -9.1986    0.0000 H       1  UNL1        0.0648
    114 H           6.8671   -6.7686    0.0000 H       1  UNL1        0.0647
    115 H           6.3301   -8.0786    0.0000 H       1  UNL1        0.0651
    116 H          11.7035    4.4587    0.0000 H       1  UNL1        0.0563
    117 H          12.0255    5.1878    0.0000 H       1  UNL1        0.0563
    118 H           9.9585    5.3961    0.0000 H       1  UNL1        0.0233
    119 H           9.1409    5.0794    0.0000 H       1  UNL1        0.0233
    120 H           9.4576    4.2618    0.0000 H       1  UNL1        0.0233
    121 H           5.3905   -6.7809    0.0000 H       1  UNL1        0.0584
    122 H           5.7890   -7.4712    0.0000 H       1  UNL1        0.0584
    123 H           9.7942   -8.0786    0.0000 H       1  UNL1        0.0938
    124 H           7.1962  -10.1986    0.0000 H       1  UNL1        0.2100
    125 H          11.7341   -9.1986    0.0000 H       1  UNL1        0.0671
    126 H           5.1350   -9.0086    0.0000 H       1  UNL1        0.0938
    127 H          12.1964    5.9831    0.0000 H       1  UNL1        0.0937
    128 H           5.4641   -5.5786    0.0000 H       1  UNL1        0.2095
    129 H          12.6002   -8.0786    0.0000 H       1  UNL1        0.0648
    130 H          10.6603   -6.5786    0.0000 H       1  UNL1        0.0621
    131 H           3.7320   -9.1986    0.0000 H       1  UNL1        0.0671
    132 H          12.0632   -6.7686    0.0000 H       1  UNL1        0.0646
    133 H          13.6117    5.9450    0.0000 H       1  UNL1        0.0671
    134 H           2.8660   -8.0786    0.0000 H       1  UNL1        0.0648
    135 H          11.7341  -10.1986    0.0000 H       1  UNL1        0.2101
    136 H           4.8059   -6.5786    0.0000 H       1  UNL1        0.0647
    137 H          14.3523    7.1517    0.0000 H       1  UNL1        0.0648
    138 H           3.4030   -6.7686    0.0000 H       1  UNL1        0.0647
    139 H          12.2624    8.4344    0.0000 H       1  UNL1        0.0647
    140 H          11.8172   -5.8886    0.0000 H       1  UNL1        0.0255
    141 H          11.1972   -5.2686    0.0000 H       1  UNL1        0.0255
    142 H          10.5772   -5.8886    0.0000 H       1  UNL1        0.0255
    143 H          13.6777    8.3964    0.0000 H       1  UNL1        0.0647
    144 H          13.4662   -8.5786    0.0000 H       1  UNL1        0.2100
    145 H           3.7320  -10.1986    0.0000 H       1  UNL1        0.2101
    146 H          13.4662   -7.1986    0.0000 H       1  UNL1        0.2100
    147 H          13.7192    4.9508    0.0000 H       1  UNL1        0.2101
    148 H           4.8796   -5.9962    0.0000 H       1  UNL1        0.0584
    149 H           4.4810   -5.3060    0.0000 H       1  UNL1        0.0584
    150 H          13.3407    9.1367    0.0000 H       1  UNL1        0.0584
    151 H          12.8702    9.7802    0.0000 H       1  UNL1        0.0584
    152 H           2.0000   -8.5786    0.0000 H       1  UNL1        0.2100
    153 H          15.2671    6.7476    0.0000 H       1  UNL1        0.2100
    154 H           2.5369   -6.2686    0.0000 H       1  UNL1        0.2100
    155 H          14.4849    8.9866    0.0000 H       1  UNL1        0.2100
    156 H           3.4030   -4.7686    0.0000 H       1  UNL1        0.2095
    157 H          11.7406   10.1986    0.0000 H       1  UNL1        0.2095
@<TRIPOS>BOND
     1     1    33    1
     2     1    43    1
     3    42     2    1
     4    47     2    1
     5     3    47    1
     6     3    51    1
     7    48     4    1
     8    56     4    1
     9    50     5    1
    10     5   124    1
    11    52     6    1
    12    58     6    1
    13     7    53    1
    14    59     7    1
    15     8    56    1
    16     8    61    1
    17     9    55    1
    18     9   128    1
    19    10    58    1
    20    10    66    1
    21    57    11    1
    22    11   135    1
    23    12    59    1
    24    12    69    1
    25    60    13    1
    26    13   144    1
    27    62    14    1
    28    14   145    1
    29    63    15    1
    30    15   146    1
    31    64    16    1
    32    16   147    1
    33    65    17    1
    34    17   152    1
    35    67    18    1
    36    18   153    1
    37    68    19    1
    38    19   154    1
    39    71    20    1
    40    20   155    1
    41    21    72    1
    42    21   156    1
    43    22    73    1
    44    22   157    1
    45    23    24    1
    46    23    25    1
    47    23    32    1
    48    23    74    1
    49    24    28    1
    50    24    29    1
    51    24    37    1
    52    25    26    1
    53    25    34    1
    54    25    75    1
    55    26    27    1
    56    26    31    1
    57    26    76    1
    58    27    30    1
    59    27    36    1
    60    27    40    1
    61    28    33    1
    62    28    39    1
    63    28    77    1
    64    29    31    1
    65    29    78    1
    66    29    79    1
    67    30    35    1
    68    30    38    1
    69    30    80    1
    70    31    81    1
    71    31    82    1
    72    32    33    1
    73    32    83    1
    74    32    84    1
    75    33    85    1
    76    34    35    1
    77    34    86    1
    78    34    87    1
    79    35    88    1
    80    35    89    1
    81    36    41    1
    82    36    90    1
    83    36    91    1
    84    37    92    1
    85    37    93    1
    86    37    94    1
    87    38    42    1
    88    38    95    1
    89    38    96    1
    90    39    43    2
    91    39    44    1
    92    40    97    1
    93    40    98    1
    94    40    99    1
    95    41    42    1
    96    41   100    1
    97    41   101    1
    98    42   102    1
    99    43    45    1
   100    44   103    1
   101    44   104    1
   102    44   105    1
   103    45    46    1
   104    45   106    1
   105    45   107    1
   106    46    49    1
   107    46   108    1
   108    46   109    1
   109    47    48    1
   110    47   110    1
   111    48    50    1
   112    48   111    1
   113    49    53    1
   114    49    54    1
   115    49   112    1
   116    50    52    1
   117    50   113    1
   118    51    52    1
   119    51    55    1
   120    51   114    1
   121    52   115    1
   122    53   116    1
   123    53   117    1
   124    54   118    1
   125    54   119    1
   126    54   120    1
   127    55   121    1
   128    55   122    1
   129    56    57    1
   130    56   123    1
   131    57    60    1
   132    57   125    1
   133    58    62    1
   134    58   126    1
   135    59    64    1
   136    59   127    1
   137    60    63    1
   138    60   129    1
   139    61    63    1
   140    61    70    1
   141    61   130    1
   142    62    65    1
   143    62   131    1
   144    63   132    1
   145    64    67    1
   146    64   133    1
   147    65    68    1
   148    65   134    1
   149    66    68    1
   150    66    72    1
   151    66   136    1
   152    67    71    1
   153    67   137    1
   154    68   138    1
   155    69    71    1
   156    69    73    1
   157    69   139    1
   158    70   140    1
   159    70   141    1
   160    70   142    1
   161    71   143    1
   162    72   148    1
   163    72   149    1
   164    73   150    1
   165    73   151    1
