@<TRIPOS>MOLECULE
IMPHY002830
 67 72 0 0 0
SMALL
GASTEIGER

@<TRIPOS>ATOM
      1 O           8.6975   -3.8099    0.0000 O.3     1  UNL1       -0.4817
      2 O           5.9174   -0.6544    0.0000 O.2     1  UNL1       -0.4534
      3 O           6.8153   -5.2305    0.0000 O.3     1  UNL1       -0.5032
      4 O           5.0572   -2.1581    0.0000 O.3     1  UNL1       -0.5059
      5 O           3.9787    2.5727    0.0000 O.3     1  UNL1       -0.4811
      6 O           8.5812    0.8702    0.0000 O.2     1  UNL1       -0.2866
      7 O           7.6999    2.4828    0.0000 O.3     1  UNL1       -0.5055
      8 C           8.5594   -2.1612    0.0000 C.3     1  UNL1        0.0320
      9 C           9.1774   -2.9396    0.0000 C.3     1  UNL1        0.1124
     10 C           7.6934   -2.6612    0.0000 C.ar    1  UNL1        0.0192
     11 C           8.5594   -1.1612    0.0000 C.3     1  UNL1       -0.0099
     12 C           7.7095   -3.7028    0.0000 C.ar    1  UNL1        0.1669
     13 C           6.8274   -2.1612    0.0000 C.ar    1  UNL1        0.0663
     14 C           7.6934   -0.6613    0.0000 C.ar    1  UNL1        0.0437
     15 C           6.8274   -1.1612    0.0000 C.ar    1  UNL1        0.1463
     16 C          10.0326   -3.4578    0.0000 C.3     1  UNL1       -0.0246
     17 C           9.9345   -2.2864    0.0000 C.3     1  UNL1       -0.0246
     18 C           6.8114   -4.2305    0.0000 C.ar    1  UNL1        0.1623
     19 C           5.9174   -2.6681    0.0000 C.ar    1  UNL1        0.1315
     20 C           7.7095    0.3803    0.0000 C.ar    1  UNL1        0.1998
     21 C           6.8114    0.9080    0.0000 C.ar    1  UNL1        0.1066
     22 C           5.9094   -3.7097    0.0000 C.ar    1  UNL1        0.0257
     23 C           5.9094    0.3872    0.0000 C.ar    1  UNL1        0.1534
     24 C           4.9615    0.9151    0.0000 C.ar    1  UNL1        0.0600
     25 C           6.8282    1.9929    0.0000 C.ar    1  UNL1        0.1382
     26 C           4.9531    2.0001    0.0000 C.ar    1  UNL1        0.1393
     27 C           5.8927    2.5426    0.0000 C.ar    1  UNL1        0.0409
     28 C           3.0000    2.0076    0.0000 C.3     1  UNL1        0.1235
     29 C           3.9960    0.3276    0.0000 C.2     1  UNL1       -0.0478
     30 C           3.0087    0.8775    0.0000 C.2     1  UNL1       -0.0408
     31 C           5.8966    3.5426    0.0000 C.3     1  UNL1       -0.0023
     32 C           2.0000    2.0038    0.0000 C.3     1  UNL1       -0.0215
     33 C           2.4967    2.8717    0.0000 C.3     1  UNL1       -0.0215
     34 C           6.7645    4.0392    0.0000 C.2     1  UNL1       -0.0807
     35 C           6.7684    5.0392    0.0000 C.2     1  UNL1       -0.0793
     36 C           7.6363    5.5359    0.0000 C.3     1  UNL1       -0.0440
     37 C           5.9043    5.5426    0.0000 C.3     1  UNL1       -0.0440
     38 H           9.1449   -1.9571    0.0000 H       1  UNL1        0.0392
     39 H           9.1700   -1.2689    0.0000 H       1  UNL1        0.0323
     40 H           8.7715   -0.5786    0.0000 H       1  UNL1        0.0323
     41 H          10.3395   -2.7558    0.0000 H       1  UNL1        0.0268
     42 H          10.4039   -1.8814    0.0000 H       1  UNL1        0.0268
     43 H           9.5295   -1.8169    0.0000 H       1  UNL1        0.0268
     44 H           9.7113   -3.9881    0.0000 H       1  UNL1        0.0268
     45 H          10.5629   -3.7791    0.0000 H       1  UNL1        0.0268
     46 H          10.3539   -2.9276    0.0000 H       1  UNL1        0.0268
     47 H           5.3712   -4.0176    0.0000 H       1  UNL1        0.0692
     48 H           6.2796   -5.5426    0.0000 H       1  UNL1        0.2923
     49 H           4.0080   -0.2923    0.0000 H       1  UNL1        0.0624
     50 H           4.5167   -2.4619    0.0000 H       1  UNL1        0.2922
     51 H           2.4754    0.5613    0.0000 H       1  UNL1        0.0611
     52 H           5.6868    4.1260    0.0000 H       1  UNL1        0.0358
     53 H           5.2856    3.4373    0.0000 H       1  UNL1        0.0358
     54 H           3.0324    3.1838    0.0000 H       1  UNL1        0.0271
     55 H           2.1846    3.4075    0.0000 H       1  UNL1        0.0271
     56 H           1.9609    2.5596    0.0000 H       1  UNL1        0.0271
     57 H           1.9976    2.6238    0.0000 H       1  UNL1        0.0271
     58 H           1.3800    2.0014    0.0000 H       1  UNL1        0.0271
     59 H           2.0024    1.3838    0.0000 H       1  UNL1        0.0271
     60 H           7.7071    3.1028    0.0000 H       1  UNL1        0.2922
     61 H           7.3003    3.7272    0.0000 H       1  UNL1        0.0575
     62 H           7.9443    4.9978    0.0000 H       1  UNL1        0.0274
     63 H           6.2164    6.0783    0.0000 H       1  UNL1        0.0274
     64 H           5.3686    5.8546    0.0000 H       1  UNL1        0.0274
     65 H           5.5922    5.0068    0.0000 H       1  UNL1        0.0274
     66 H           8.1745    5.8438    0.0000 H       1  UNL1        0.0274
     67 H           7.3284    6.0740    0.0000 H       1  UNL1        0.0274
@<TRIPOS>BOND
     1     1     9    1
     2     1    12    1
     3     2    15   ar
     4     2    23   ar
     5     3    18    1
     6     3    48    1
     7     4    19    1
     8     4    50    1
     9     5    26    1
    10     5    28    1
    11     6    20    2
    12     7    25    1
    13     7    60    1
    14     8     9    1
    15     8    10    1
    16     8    11    1
    17     8    38    1
    18     9    16    1
    19     9    17    1
    20    10    12   ar
    21    10    13   ar
    22    11    14    1
    23    11    39    1
    24    11    40    1
    25    12    18   ar
    26    13    15    1
    27    13    19   ar
    28    14    15   ar
    29    14    20   ar
    30    16    44    1
    31    16    45    1
    32    16    46    1
    33    17    41    1
    34    17    42    1
    35    17    43    1
    36    18    22   ar
    37    19    22   ar
    38    20    21   ar
    39    21    23   ar
    40    21    25   ar
    41    22    47    1
    42    23    24   ar
    43    24    26   ar
    44    24    29    1
    45    25    27   ar
    46    26    27   ar
    47    27    31    1
    48    28    30    1
    49    28    32    1
    50    28    33    1
    51    29    30    2
    52    29    49    1
    53    30    51    1
    54    31    34    1
    55    31    52    1
    56    31    53    1
    57    32    57    1
    58    32    58    1
    59    32    59    1
    60    33    54    1
    61    33    55    1
    62    33    56    1
    63    34    35    2
    64    34    61    1
    65    35    36    1
    66    35    37    1
    67    36    62    1
    68    36    66    1
    69    36    67    1
    70    37    63    1
    71    37    64    1
    72    37    65    1
