@<TRIPOS>MOLECULE
IMPHY007287
 29 29 0 0 0
SMALL
GASTEIGER

@<TRIPOS>ATOM
      1 O           3.7320    1.8450    0.0000 O.3     1  UNL1       -0.3885
      2 C           3.7320   -0.1550    0.0000 C.3     1  UNL1        0.0057
      3 C           3.7320    0.8450    0.0000 C.3     1  UNL1        0.0667
      4 C           4.5981   -0.6550    0.0000 C.3     1  UNL1       -0.0439
      5 C           4.5981   -1.6550    0.0000 C.3     1  UNL1       -0.0488
      6 C           2.8660   -0.6550    0.0000 C.2     1  UNL1       -0.0792
      7 C           3.7320   -2.1550    0.0000 C.3     1  UNL1       -0.0320
      8 C           2.8660   -1.6550    0.0000 C.2     1  UNL1       -0.0762
      9 C           4.7320    0.8450    0.0000 C.3     1  UNL1       -0.0358
     10 C           2.7320    0.8450    0.0000 C.3     1  UNL1       -0.0358
     11 C           2.0000   -2.1550    0.0000 C.3     1  UNL1       -0.0438
     12 H           4.2690    0.1550    0.0000 H       1  UNL1        0.0371
     13 H           5.2087   -0.7627    0.0000 H       1  UNL1        0.0272
     14 H           4.8101   -0.0724    0.0000 H       1  UNL1        0.0272
     15 H           4.8101   -2.2376    0.0000 H       1  UNL1        0.0268
     16 H           5.2087   -1.5473    0.0000 H       1  UNL1        0.0268
     17 H           2.3291   -0.3450    0.0000 H       1  UNL1        0.0575
     18 H           3.3335   -2.6300    0.0000 H       1  UNL1        0.0310
     19 H           4.1306   -2.6300    0.0000 H       1  UNL1        0.0310
     20 H           2.7320    1.4650    0.0000 H       1  UNL1        0.0257
     21 H           4.7320    0.2250    0.0000 H       1  UNL1        0.0257
     22 H           5.3520    0.8450    0.0000 H       1  UNL1        0.0257
     23 H           4.7320    1.4650    0.0000 H       1  UNL1        0.0257
     24 H           2.1120    0.8450    0.0000 H       1  UNL1        0.0257
     25 H           2.7320    0.2250    0.0000 H       1  UNL1        0.0257
     26 H           1.6900   -1.6181    0.0000 H       1  UNL1        0.0274
     27 H           1.4631   -2.4650    0.0000 H       1  UNL1        0.0274
     28 H           2.3100   -2.6919    0.0000 H       1  UNL1        0.0274
     29 H           4.2690    2.1550    0.0000 H       1  UNL1        0.2102
@<TRIPOS>BOND
     1     1     3    1
     2     1    29    1
     3     2     3    1
     4     2     4    1
     5     2     6    1
     6     2    12    1
     7     3     9    1
     8     3    10    1
     9     4     5    1
    10     4    13    1
    11     4    14    1
    12     5     7    1
    13     5    15    1
    14     5    16    1
    15     6     8    2
    16     6    17    1
    17     7     8    1
    18     7    18    1
    19     7    19    1
    20     8    11    1
    21     9    21    1
    22     9    22    1
    23     9    23    1
    24    10    20    1
    25    10    24    1
    26    10    25    1
    27    11    26    1
    28    11    27    1
    29    11    28    1
