@<TRIPOS>MOLECULE
IMPHY010539
 59 64 0 0 0
SMALL
GASTEIGER

@<TRIPOS>ATOM
      1 O           3.2328    3.1864    0.0000 O.3     1  UNL1       -0.3717
      2 O           7.0444    0.3877    0.0000 O.2     1  UNL1       -0.2964
      3 O           2.0000    0.0999    0.0000 O.2     1  UNL1       -0.2752
      4 O           5.8995   -3.1690    0.0000 O.3     1  UNL1       -0.4914
      5 O           3.8684   -3.3806    0.0000 O.3     1  UNL1       -0.4914
      6 N           3.7094    0.2206    0.0000 N.am    1  UNL1       -0.2662
      7 N           6.9920    2.3004    0.0000 N.3     1  UNL1       -0.3014
      8 C           4.4464    0.8877    0.0000 C.3     1  UNL1        0.0532
      9 C           5.3124    0.3877    0.0000 C.3     1  UNL1        0.0760
     10 C           4.4464    1.8877    0.0000 C.3     1  UNL1        0.0129
     11 C           5.3124    2.3877    0.0000 C.3     1  UNL1       -0.0050
     12 C           3.5244    2.2430    0.0000 C.3     1  UNL1        0.0724
     13 C           6.1784    1.8877    0.0000 C.3     1  UNL1        0.0137
     14 C           5.1032   -0.5841    0.0000 C.ar    1  UNL1       -0.0071
     15 C           6.1784    0.8877    0.0000 C.2     1  UNL1        0.1462
     16 C           6.2909    0.5610    0.0000 C.3     1  UNL1       -0.0219
     17 C           4.1145   -0.6872    0.0000 C.ar    1  UNL1        0.0445
     18 C           2.7361    1.6473    0.0000 C.3     1  UNL1        0.0511
     19 C           5.4485    3.3657    0.0000 C.2     1  UNL1       -0.0535
     20 C           2.8261    0.6634    0.0000 C.2     1  UNL1        0.2226
     21 C           6.9466    1.3077    0.0000 C.3     1  UNL1        0.0002
     22 C           6.4071    3.1038    0.0000 C.3     1  UNL1        0.0201
     23 C           5.7240   -1.4129    0.0000 C.ar    1  UNL1       -0.0104
     24 C           4.7706    4.0837    0.0000 C.2     1  UNL1       -0.0579
     25 C           3.6780   -1.6261    0.0000 C.ar    1  UNL1        0.0054
     26 C           3.7864    4.0040    0.0000 C.3     1  UNL1        0.0665
     27 C           5.3093   -2.3617    0.0000 C.ar    1  UNL1        0.1619
     28 C           4.2794   -2.4690    0.0000 C.ar    1  UNL1        0.1633
     29 C           7.9497    2.5881    0.0000 C.3     1  UNL1       -0.0124
     30 C           5.4955   -4.0837    0.0000 C.3     1  UNL1        0.0790
     31 C           2.8734   -3.4805    0.0000 C.3     1  UNL1        0.0790
     32 H           4.4464    0.0377    0.0000 H       1  UNL1        0.0521
     33 H           3.7103    1.4627    0.0000 H       1  UNL1        0.0350
     34 H           6.0485    2.8127    0.0000 H       1  UNL1        0.0354
     35 H           3.8428    3.0311    0.0000 H       1  UNL1        0.0604
     36 H           6.7890    1.7800    0.0000 H       1  UNL1        0.0348
     37 H           6.3905    2.4703    0.0000 H       1  UNL1        0.0348
     38 H           6.2146   -0.0543    0.0000 H       1  UNL1        0.0291
     39 H           6.8565    0.3071    0.0000 H       1  UNL1        0.0291
     40 H           2.4599    2.2024    0.0000 H       1  UNL1        0.0384
     41 H           2.1397    1.4781    0.0000 H       1  UNL1        0.0384
     42 H           7.2715    0.7797    0.0000 H       1  UNL1        0.0427
     43 H           7.5469    1.4629    0.0000 H       1  UNL1        0.0427
     44 H           6.9935    3.3051    0.0000 H       1  UNL1        0.0472
     45 H           6.3873    3.7235    0.0000 H       1  UNL1        0.0472
     46 H           6.3398   -1.3415    0.0000 H       1  UNL1        0.0659
     47 H           4.9929    4.6625    0.0000 H       1  UNL1        0.0595
     48 H           3.0606   -1.6833    0.0000 H       1  UNL1        0.0674
     49 H           3.8757    4.6176    0.0000 H       1  UNL1        0.0604
     50 H           3.2083    4.2282    0.0000 H       1  UNL1        0.0604
     51 H           8.1280    1.9943    0.0000 H       1  UNL1        0.0391
     52 H           8.5435    2.7665    0.0000 H       1  UNL1        0.0391
     53 H           7.7713    3.1819    0.0000 H       1  UNL1        0.0391
     54 H           4.9283   -3.8332    0.0000 H       1  UNL1        0.0660
     55 H           5.2450   -4.6509    0.0000 H       1  UNL1        0.0660
     56 H           6.0626   -4.3342    0.0000 H       1  UNL1        0.0660
     57 H           2.8114   -2.8636    0.0000 H       1  UNL1        0.0660
     58 H           2.2564   -3.5424    0.0000 H       1  UNL1        0.0660
     59 H           2.9352   -4.0974    0.0000 H       1  UNL1        0.0660
@<TRIPOS>BOND
     1     1    12    1
     2     1    26    1
     3     2    15    2
     4     3    20    2
     5     4    27    1
     6     4    30    1
     7     5    28    1
     8     5    31    1
     9     6     8    1
    10     6    17    1
    11     6    20   am
    12     7    21    1
    13     7    22    1
    14     7    29    1
    15     8     9    1
    16     8    10    1
    17     8    32    1
    18     9    14    1
    19     9    15    1
    20     9    16    1
    21    10    11    1
    22    10    12    1
    23    10    33    1
    24    11    13    1
    25    11    19    1
    26    11    34    1
    27    12    18    1
    28    12    35    1
    29    13    15    1
    30    13    36    1
    31    13    37    1
    32    14    17   ar
    33    14    23   ar
    34    16    21    1
    35    16    38    1
    36    16    39    1
    37    17    25   ar
    38    18    20    1
    39    18    40    1
    40    18    41    1
    41    19    22    1
    42    19    24    2
    43    21    42    1
    44    21    43    1
    45    22    44    1
    46    22    45    1
    47    23    27   ar
    48    23    46    1
    49    24    26    1
    50    24    47    1
    51    25    28   ar
    52    25    48    1
    53    26    49    1
    54    26    50    1
    55    27    28   ar
    56    29    51    1
    57    29    52    1
    58    29    53    1
    59    30    54    1
    60    30    55    1
    61    30    56    1
    62    31    57    1
    63    31    58    1
    64    31    59    1
