@<TRIPOS>MOLECULE
IMPHY002058
 45 50 0 0 0
SMALL
GASTEIGER

@<TRIPOS>ATOM
      1 O           6.7028    1.6773    0.0000 O.3     1  UNL1       -0.3472
      2 O           7.1654   -0.0180    0.0000 O.3     1  UNL1       -0.3428
      3 O           3.6300    3.3973    0.0000 O.3     1  UNL1       -0.4604
      4 O           2.0000    3.2090    0.0000 O.2     1  UNL1       -0.2453
      5 O           7.3447   -3.3973    0.0000 O.2     1  UNL1       -0.4707
      6 C           5.5794    0.2685    0.0000 C.3     1  UNL1        0.0365
      7 C           4.6784    0.7023    0.0000 C.3     1  UNL1        0.0011
      8 C           5.4725    1.4452    0.0000 C.3     1  UNL1       -0.0065
      9 C           4.4559    1.6773    0.0000 C.3     1  UNL1        0.0458
     10 C           6.0794    2.4591    0.0000 C.3     1  UNL1        0.0659
     11 C           6.4803    0.7023    0.0000 C.3     1  UNL1        0.1668
     12 C           5.0794    2.4591    0.0000 C.3     1  UNL1       -0.0126
     13 C           5.7154   -0.7163    0.0000 C.3     1  UNL1       -0.0110
     14 C           6.6936   -0.8929    0.0000 C.3     1  UNL1        0.0902
     15 C           4.5619    2.7073    0.0000 C.3     1  UNL1        0.1032
     16 C           3.4654    1.9996    0.0000 C.2     1  UNL1        0.0466
     17 C           4.3736    1.1064    0.0000 C.3     1  UNL1       -0.0594
     18 C           3.9258   -0.0178    0.0000 C.2     1  UNL1       -0.0793
     19 C           2.6964    1.2970    0.0000 C.2     1  UNL1       -0.0514
     20 C           2.9504    2.8979    0.0000 C.2     1  UNL1        0.3358
     21 C           2.9282    0.2815    0.0000 C.2     1  UNL1       -0.0649
     22 C           7.1275   -1.7939    0.0000 C.ar    1  UNL1        0.0189
     23 C           8.1114   -1.9724    0.0000 C.ar    1  UNL1       -0.0183
     24 C           6.6536   -2.6745    0.0000 C.ar    1  UNL1        0.0973
     25 C           8.2457   -2.9634    0.0000 C.ar    1  UNL1        0.0920
     26 H           4.8675   -0.1263    0.0000 H       1  UNL1        0.0360
     27 H           5.0898    1.9330    0.0000 H       1  UNL1        0.0330
     28 H           6.4482    3.2249    0.0000 H       1  UNL1        0.0600
     29 H           7.2462    1.0711    0.0000 H       1  UNL1        0.0916
     30 H           5.2173    3.0636    0.0000 H       1  UNL1        0.0300
     31 H           4.5208    2.7281    0.0000 H       1  UNL1        0.0300
     32 H           5.0957   -0.7361    0.0000 H       1  UNL1        0.0301
     33 H           5.6699   -1.3346    0.0000 H       1  UNL1        0.0301
     34 H           6.3182   -1.3864    0.0000 H       1  UNL1        0.0648
     35 H           5.1576    2.5354    0.0000 H       1  UNL1        0.0707
     36 H           4.8366    3.2631    0.0000 H       1  UNL1        0.0707
     37 H           4.1909    1.6988    0.0000 H       1  UNL1        0.0233
     38 H           3.7811    0.9237    0.0000 H       1  UNL1        0.0233
     39 H           4.5563    0.5139    0.0000 H       1  UNL1        0.0233
     40 H           4.0708   -0.6207    0.0000 H       1  UNL1        0.0575
     41 H           2.1046    1.4821    0.0000 H       1  UNL1        0.0623
     42 H           2.4753   -0.1419    0.0000 H       1  UNL1        0.0615
     43 H           8.5596   -1.5440    0.0000 H       1  UNL1        0.0652
     44 H           6.0392   -2.7577    0.0000 H       1  UNL1        0.1033
     45 H           8.7916   -3.2572    0.0000 H       1  UNL1        0.1029
@<TRIPOS>BOND
     1     1    10    1
     2     1    11    1
     3     2    11    1
     4     2    14    1
     5     3    15    1
     6     3    20    1
     7     4    20    2
     8     5    24   ar
     9     5    25   ar
    10     6     7    1
    11     6     8    1
    12     6    11    1
    13     6    13    1
    14     7     9    1
    15     7    18    1
    16     7    26    1
    17     8    10    1
    18     8    17    1
    19     8    27    1
    20     9    12    1
    21     9    15    1
    22     9    16    1
    23    10    12    1
    24    10    28    1
    25    11    29    1
    26    12    30    1
    27    12    31    1
    28    13    14    1
    29    13    32    1
    30    13    33    1
    31    14    22    1
    32    14    34    1
    33    15    35    1
    34    15    36    1
    35    16    19    2
    36    16    20    1
    37    17    37    1
    38    17    38    1
    39    17    39    1
    40    18    21    2
    41    18    40    1
    42    19    21    1
    43    19    41    1
    44    21    42    1
    45    22    23   ar
    46    22    24   ar
    47    23    25   ar
    48    23    43    1
    49    24    44    1
    50    25    45    1
