@<TRIPOS>MOLECULE
IMPHY012561
 40 41 0 0 0
SMALL
GASTEIGER

@<TRIPOS>ATOM
      1 O           9.1154   -0.9807    0.0000 O.3     1  UNL1       -0.3902
      2 O           4.2267   -0.2543    0.0000 O.3     1  UNL1       -0.4612
      3 O           4.8191   -1.8819    0.0000 O.2     1  UNL1       -0.2508
      4 N           6.7386    2.3427    0.0000 N.3     1  UNL1       -0.2967
      5 C           7.2164    0.3942    0.0000 C.3     1  UNL1        0.0397
      6 C           7.4752    1.3601    0.0000 C.3     1  UNL1        0.0162
      7 C           8.6154   -0.1146    0.0000 C.3     1  UNL1        0.0723
      8 C           8.8742    0.8513    0.0000 C.3     1  UNL1       -0.0096
      9 C           5.9954   -0.4715    0.0000 C.3     1  UNL1        0.0024
     10 C           5.4420    1.0490    0.0000 C.3     1  UNL1        0.0001
     11 C           5.1664    0.0877    0.0000 C.3     1  UNL1        0.1060
     12 C           6.2386    3.2087    0.0000 C.3     1  UNL1       -0.0121
     13 C           4.0530   -1.2391    0.0000 C.2     1  UNL1        0.3076
     14 C           3.1133   -1.5811    0.0000 C.3     1  UNL1        0.0473
     15 C           2.9397   -2.5660    0.0000 C.3     1  UNL1       -0.0367
     16 C           2.0000   -2.9080    0.0000 C.3     1  UNL1       -0.0622
     17 C           3.7057   -3.2087    0.0000 C.3     1  UNL1       -0.0622
     18 H           7.2992   -0.2203    0.0000 H       1  UNL1        0.0489
     19 H           7.8446    1.8581    0.0000 H       1  UNL1        0.0464
     20 H           8.2169   -0.5896    0.0000 H       1  UNL1        0.0609
     21 H           9.4682    0.6735    0.0000 H       1  UNL1        0.0306
     22 H           9.0691    1.4398    0.0000 H       1  UNL1        0.0306
     23 H           5.5896   -0.9402    0.0000 H       1  UNL1        0.0317
     24 H           6.4121   -0.9306    0.0000 H       1  UNL1        0.0317
     25 H           5.4370    1.6690    0.0000 H       1  UNL1        0.0316
     26 H           4.8277    1.1328    0.0000 H       1  UNL1        0.0316
     27 H           5.0908   -0.5277    0.0000 H       1  UNL1        0.0735
     28 H           6.7756    3.5187    0.0000 H       1  UNL1        0.0391
     29 H           5.9286    3.7457    0.0000 H       1  UNL1        0.0391
     30 H           5.7017    2.8987    0.0000 H       1  UNL1        0.0391
     31 H           9.7354   -0.9807    0.0000 H       1  UNL1        0.2098
     32 H           3.0057   -0.9706    0.0000 H       1  UNL1        0.0380
     33 H           2.4933   -1.5811    0.0000 H       1  UNL1        0.0380
     34 H           3.5223   -2.3539    0.0000 H       1  UNL1        0.0301
     35 H           1.7880   -2.3254    0.0000 H       1  UNL1        0.0232
     36 H           1.4174   -3.1200    0.0000 H       1  UNL1        0.0232
     37 H           2.2120   -3.4906    0.0000 H       1  UNL1        0.0232
     38 H           3.3072   -3.6837    0.0000 H       1  UNL1        0.0232
     39 H           4.1807   -3.6073    0.0000 H       1  UNL1        0.0232
     40 H           4.1043   -2.7338    0.0000 H       1  UNL1        0.0232
@<TRIPOS>BOND
     1     7     1    1
     2     1    31    1
     3    11     2    1
     4     2    13    1
     5     3    13    2
     6     4     5    1
     7     4     6    1
     8     4    12    1
     9     5     7    1
    10     5     9    1
    11     5    18    1
    12     6     8    1
    13     6    10    1
    14     6    19    1
    15     7     8    1
    16     7    20    1
    17     8    21    1
    18     8    22    1
    19     9    11    1
    20     9    23    1
    21     9    24    1
    22    10    11    1
    23    10    25    1
    24    10    26    1
    25    11    27    1
    26    12    28    1
    27    12    29    1
    28    12    30    1
    29    13    14    1
    30    14    15    1
    31    14    32    1
    32    14    33    1
    33    15    16    1
    34    15    17    1
    35    15    34    1
    36    16    35    1
    37    16    36    1
    38    16    37    1
    39    17    38    1
    40    17    39    1
    41    17    40    1
