@<TRIPOS>MOLECULE
IMPHY001548
 36 35 0 0 0
SMALL
GASTEIGER

@<TRIPOS>ATOM
      1 O           2.8660   -1.0600    0.0000 O.2     1  UNL1       -0.2977
      2 C           7.1962    0.4400    0.0000 C.3     1  UNL1       -0.0286
      3 C           6.3301   -0.0600    0.0000 C.2     1  UNL1       -0.0762
      4 C           8.0622   -0.0600    0.0000 C.3     1  UNL1       -0.0308
      5 C           4.5981   -0.0600    0.0000 C.3     1  UNL1       -0.0279
      6 C           5.4641    0.4400    0.0000 C.2     1  UNL1       -0.0846
      7 C           3.7320    0.4400    0.0000 C.3     1  UNL1        0.0090
      8 C           8.9282    0.4400    0.0000 C.2     1  UNL1       -0.0850
      9 C           6.3301   -1.0600    0.0000 C.3     1  UNL1       -0.0438
     10 C           9.7942   -0.0600    0.0000 C.2     1  UNL1       -0.0796
     11 C           2.8660   -0.0600    0.0000 C.2     1  UNL1        0.1306
     12 C          10.6603    0.4400    0.0000 C.3     1  UNL1       -0.0440
     13 C           9.7942   -1.0600    0.0000 C.3     1  UNL1       -0.0440
     14 C           2.0000    0.4400    0.0000 C.3     1  UNL1       -0.0061
     15 H           7.5947    0.9149    0.0000 H       1  UNL1        0.0313
     16 H           6.7976    0.9149    0.0000 H       1  UNL1        0.0313
     17 H           7.6636   -0.5349    0.0000 H       1  UNL1        0.0310
     18 H           8.4607   -0.5349    0.0000 H       1  UNL1        0.0310
     19 H           4.1996   -0.5349    0.0000 H       1  UNL1        0.0311
     20 H           4.9966   -0.5349    0.0000 H       1  UNL1        0.0311
     21 H           5.4641    1.0600    0.0000 H       1  UNL1        0.0572
     22 H           4.1306    0.9149    0.0000 H       1  UNL1        0.0344
     23 H           3.3335    0.9149    0.0000 H       1  UNL1        0.0344
     24 H           8.9282    1.0600    0.0000 H       1  UNL1        0.0572
     25 H           5.7101   -1.0600    0.0000 H       1  UNL1        0.0274
     26 H           6.3301   -1.6800    0.0000 H       1  UNL1        0.0274
     27 H           6.9501   -1.0600    0.0000 H       1  UNL1        0.0274
     28 H           9.1742   -1.0600    0.0000 H       1  UNL1        0.0274
     29 H           9.7942   -1.6800    0.0000 H       1  UNL1        0.0274
     30 H          10.4142   -1.0600    0.0000 H       1  UNL1        0.0274
     31 H          10.9703   -0.0969    0.0000 H       1  UNL1        0.0274
     32 H          11.1972    0.7500    0.0000 H       1  UNL1        0.0274
     33 H          10.3503    0.9769    0.0000 H       1  UNL1        0.0274
     34 H           2.3100    0.9769    0.0000 H       1  UNL1        0.0306
     35 H           1.4631    0.7500    0.0000 H       1  UNL1        0.0306
     36 H           1.6900   -0.0969    0.0000 H       1  UNL1        0.0306
@<TRIPOS>BOND
     1     1    11    2
     2     2     3    1
     3     2     4    1
     4     2    15    1
     5     2    16    1
     6     3     6    2
     7     3     9    1
     8     4     8    1
     9     4    17    1
    10     4    18    1
    11     5     6    1
    12     5     7    1
    13     5    19    1
    14     5    20    1
    15     6    21    1
    16     7    11    1
    17     7    22    1
    18     7    23    1
    19     8    10    2
    20     8    24    1
    21     9    25    1
    22     9    26    1
    23     9    27    1
    24    10    12    1
    25    10    13    1
    26    11    14    1
    27    12    31    1
    28    12    32    1
    29    12    33    1
    30    13    28    1
    31    13    29    1
    32    13    30    1
    33    14    34    1
    34    14    35    1
    35    14    36    1
