@<TRIPOS>MOLECULE
IMPHY004093
 50 52 0 0 0
SMALL
GASTEIGER

@<TRIPOS>ATOM
      1 O           2.4298    0.0000    0.0000 O.co2   1  UNL1       -0.7743
      2 O           2.4298    6.0540    0.0000 O.co2   2  UNL2       -0.7743
      3 O           3.6867    3.2553    0.0000 O.3     1  UNL1       -0.3857
      4 O           3.6867    9.3092    0.0000 O.3     2  UNL2       -0.3857
      5 O           0.1916    3.4680    0.0000 O.3     1  UNL1       -0.3905
      6 O           0.1916    9.5220    0.0000 O.3     2  UNL2       -0.3905
      7 N           2.4298    1.0000    0.0000 N.3     1  UNL1        0.2271
      8 N           2.4298    7.0540    0.0000 N.3     2  UNL2        0.2271
      9 C           2.4298    2.0000    0.0000 C.3     1  UNL1        0.0294
     10 C           2.4298    8.0540    0.0000 C.3     2  UNL2        0.0294
     11 C           3.3760    2.3047    0.0000 C.3     1  UNL1        0.1064
     12 C           3.3760    8.3587    0.0000 C.3     2  UNL2        0.1064
     13 C           3.3760    0.6953    0.0000 C.3     1  UNL1       -0.0291
     14 C           3.3760    6.7493    0.0000 C.3     2  UNL2       -0.0291
     15 C           3.9596    1.5000    0.0000 C.3     1  UNL1        0.0191
     16 C           3.9596    7.5540    0.0000 C.3     2  UNL2        0.0191
     17 C           1.4788    0.6910    0.0000 C.3     1  UNL1       -0.0126
     18 C           1.4788    6.7450    0.0000 C.3     2  UNL2       -0.0126
     19 C           1.4788    2.3090    0.0000 C.2     1  UNL1        0.0064
     20 C           1.4788    8.3630    0.0000 C.2     2  UNL2        0.0064
     21 C           0.8910    1.5000    0.0000 C.2     1  UNL1       -0.0328
     22 C           0.8910    7.5540    0.0000 C.2     2  UNL2       -0.0328
     23 C           1.1697    3.2601    0.0000 C.3     1  UNL1        0.0707
     24 C           1.1697    9.3141    0.0000 C.3     2  UNL2        0.0707
     25 H           2.4309    2.8500    0.0000 H       1  UNL1        0.0927
     26 H           2.4309    8.9040    0.0000 H       2  UNL2        0.0927
     27 H           3.9885    2.4009    0.0000 H       1  UNL1        0.0655
     28 H           3.9885    8.4549    0.0000 H       2  UNL2        0.0655
     29 H           3.1250    0.1284    0.0000 H       1  UNL1        0.0814
     30 H           3.9134    0.3860    0.0000 H       1  UNL1        0.0814
     31 H           3.1250    6.1824    0.0000 H       2  UNL2        0.0814
     32 H           3.9134    6.4400    0.0000 H       2  UNL2        0.0814
     33 H           4.4205    1.0853    0.0000 H       1  UNL1        0.0344
     34 H           4.4205    1.9147    0.0000 H       1  UNL1        0.0344
     35 H           4.4205    7.1393    0.0000 H       2  UNL2        0.0344
     36 H           4.4205    7.9687    0.0000 H       2  UNL2        0.0344
     37 H           0.9418    0.3810    0.0000 H       1  UNL1        0.0861
     38 H           1.7309    0.1246    0.0000 H       1  UNL1        0.0861
     39 H           0.9418    6.4350    0.0000 H       2  UNL2        0.0861
     40 H           1.7309    6.1786    0.0000 H       2  UNL2        0.0861
     41 H           0.2710    1.5000    0.0000 H       1  UNL1        0.0627
     42 H           0.2710    7.5540    0.0000 H       2  UNL2        0.0627
     43 H           1.7837    3.3464    0.0000 H       1  UNL1        0.0606
     44 H           1.1914    3.8797    0.0000 H       1  UNL1        0.0606
     45 H           1.7837    9.4004    0.0000 H       2  UNL2        0.0606
     46 H           1.1914    9.9337    0.0000 H       2  UNL2        0.0606
     47 H           4.2934    3.3831    0.0000 H       1  UNL1        0.2101
     48 H           4.2934    9.4371    0.0000 H       2  UNL2        0.2101
     49 H           0.0000    4.0576    0.0000 H       1  UNL1        0.2098
     50 H           0.0000   10.1116    0.0000 H       2  UNL2        0.2098
@<TRIPOS>UNITY_ATOM_ATTR
1 1
charge -1
2 1
charge -1
7 1
charge 1
8 1
charge 1
@<TRIPOS>BOND
     1     7     1    1
     2     8     2    1
     3    11     3    1
     4     3    47    1
     5    12     4    1
     6     4    48    1
     7     5    23    1
     8     5    49    1
     9     6    24    1
    10     6    50    1
    11     7     9    1
    12     7    13    1
    13     7    17    1
    14     8    10    1
    15     8    14    1
    16     8    18    1
    17     9    11    1
    18     9    19    1
    19     9    25    1
    20    10    12    1
    21    10    20    1
    22    10    26    1
    23    11    15    1
    24    11    27    1
    25    12    16    1
    26    12    28    1
    27    13    15    1
    28    13    29    1
    29    13    30    1
    30    14    16    1
    31    14    31    1
    32    14    32    1
    33    15    33    1
    34    15    34    1
    35    16    35    1
    36    16    36    1
    37    17    21    1
    38    17    37    1
    39    17    38    1
    40    18    22    1
    41    18    39    1
    42    18    40    1
    43    19    21    2
    44    19    23    1
    45    20    22    2
    46    20    24    1
    47    21    41    1
    48    22    42    1
    49    23    43    1
    50    23    44    1
    51    24    45    1
    52    24    46    1
