@<TRIPOS>MOLECULE
IMPHY001867
 66 68 0 0 0
SMALL
GASTEIGER

@<TRIPOS>ATOM
      1 O           8.1301   -3.7151    0.0000 O.2     1  UNL1       -0.4542
      2 O           6.3817   -0.6805    0.0000 O.3     1  UNL1       -0.5055
      3 O           8.1301   -0.7151    0.0000 O.2     1  UNL1       -0.2863
      4 O          11.6602   -1.6909    0.0000 O.3     1  UNL1       -0.5031
      5 O           4.6000   -3.7392    0.0000 O.3     1  UNL1       -0.5062
      6 O          11.6602   -3.7392    0.0000 O.3     1  UNL1       -0.5032
      7 C           8.9961   -2.2151    0.0000 C.ar    1  UNL1        0.0719
      8 C           9.8901   -1.6804    0.0000 C.ar    1  UNL1        0.0158
      9 C           7.2641   -2.2151    0.0000 C.ar    1  UNL1        0.1064
     10 C           8.9961   -3.2151    0.0000 C.ar    1  UNL1        0.1432
     11 C           9.8785   -0.6805    0.0000 C.3     1  UNL1       -0.0049
     12 C           8.1301   -1.7151    0.0000 C.ar    1  UNL1        0.2041
     13 C           7.2641   -3.2151    0.0000 C.ar    1  UNL1        0.1463
     14 C           6.3701   -1.6804    0.0000 C.ar    1  UNL1        0.1381
     15 C           5.4641   -2.1943    0.0000 C.ar    1  UNL1        0.0400
     16 C          10.7961   -2.1943    0.0000 C.ar    1  UNL1        0.1627
     17 C          10.7387   -0.1705    0.0000 C.2     1  UNL1       -0.0806
     18 C           9.8901   -3.7498    0.0000 C.ar    1  UNL1        0.0265
     19 C          10.7271    0.8294    0.0000 C.2     1  UNL1       -0.0759
     20 C           6.3701   -3.7498    0.0000 C.ar    1  UNL1        0.0234
     21 C           5.4641   -3.2359    0.0000 C.ar    1  UNL1        0.1273
     22 C          10.7961   -3.2359    0.0000 C.ar    1  UNL1        0.1621
     23 C          11.5873    1.3394    0.0000 C.3     1  UNL1       -0.0286
     24 C           4.6000   -1.6909    0.0000 C.3     1  UNL1       -0.0023
     25 C          11.5758    2.3393    0.0000 C.3     1  UNL1       -0.0308
     26 C           9.8554    1.3194    0.0000 C.3     1  UNL1       -0.0438
     27 C           3.7320   -2.1876    0.0000 C.2     1  UNL1       -0.0807
     28 C          12.4359    2.8493    0.0000 C.2     1  UNL1       -0.0850
     29 C           2.8680   -1.6843    0.0000 C.2     1  UNL1       -0.0793
     30 C          12.4244    3.8492    0.0000 C.2     1  UNL1       -0.0796
     31 C           2.0000   -2.1809    0.0000 C.3     1  UNL1       -0.0440
     32 C           2.8718   -0.6843    0.0000 C.3     1  UNL1       -0.0440
     33 C          13.2846    4.3592    0.0000 C.3     1  UNL1       -0.0440
     34 C          11.5526    4.3392    0.0000 C.3     1  UNL1       -0.0440
     35 H           9.6597   -0.1004    0.0000 H       1  UNL1        0.0357
     36 H           9.2692   -0.7952    0.0000 H       1  UNL1        0.0357
     37 H          11.2792   -0.4743    0.0000 H       1  UNL1        0.0575
     38 H           9.8829   -4.3697    0.0000 H       1  UNL1        0.0692
     39 H           6.3773   -4.3697    0.0000 H       1  UNL1        0.0691
     40 H          11.8061    0.7593    0.0000 H       1  UNL1        0.0313
     41 H          12.1966    1.4541    0.0000 H       1  UNL1        0.0313
     42 H           5.0003   -1.2175    0.0000 H       1  UNL1        0.0358
     43 H           4.2033   -1.2145    0.0000 H       1  UNL1        0.0358
     44 H          11.3570    2.9194    0.0000 H       1  UNL1        0.0310
     45 H          10.9665    2.2246    0.0000 H       1  UNL1        0.0310
     46 H          10.1592    1.8599    0.0000 H       1  UNL1        0.0274
     47 H           9.3149    1.6232    0.0000 H       1  UNL1        0.0274
     48 H           9.5516    0.7789    0.0000 H       1  UNL1        0.0274
     49 H           3.7296   -2.8076    0.0000 H       1  UNL1        0.0575
     50 H          12.9764    2.5456    0.0000 H       1  UNL1        0.0572
     51 H           5.8484   -0.3643    0.0000 H       1  UNL1        0.2922
     52 H          12.1984   -1.9989    0.0000 H       1  UNL1        0.2923
     53 H           4.6024   -4.3592    0.0000 H       1  UNL1        0.2921
     54 H          11.6578   -4.3592    0.0000 H       1  UNL1        0.2923
     55 H           3.4918   -0.6867    0.0000 H       1  UNL1        0.0274
     56 H           2.8742   -0.0643    0.0000 H       1  UNL1        0.0274
     57 H           2.2518   -0.6819    0.0000 H       1  UNL1        0.0274
     58 H           1.6921   -1.6428    0.0000 H       1  UNL1        0.0274
     59 H           1.4619   -2.4888    0.0000 H       1  UNL1        0.0274
     60 H           2.3079   -2.7190    0.0000 H       1  UNL1        0.0274
     61 H          11.8564    4.8797    0.0000 H       1  UNL1        0.0274
     62 H          11.0121    4.6430    0.0000 H       1  UNL1        0.0274
     63 H          11.2489    3.7987    0.0000 H       1  UNL1        0.0274
     64 H          13.6008    3.8259    0.0000 H       1  UNL1        0.0274
     65 H          13.8179    4.6754    0.0000 H       1  UNL1        0.0274
     66 H          12.9684    4.8926    0.0000 H       1  UNL1        0.0274
@<TRIPOS>BOND
     1     1    10   ar
     2     1    13   ar
     3     2    14    1
     4     2    51    1
     5     3    12    2
     6     4    16    1
     7     4    52    1
     8     5    21    1
     9     5    53    1
    10     6    22    1
    11     6    54    1
    12     7     8   ar
    13     7    10   ar
    14     7    12   ar
    15     8    11    1
    16     8    16   ar
    17     9    12   ar
    18     9    13   ar
    19     9    14   ar
    20    10    18   ar
    21    11    17    1
    22    11    35    1
    23    11    36    1
    24    13    20   ar
    25    14    15   ar
    26    15    21   ar
    27    15    24    1
    28    16    22   ar
    29    17    19    2
    30    17    37    1
    31    18    22   ar
    32    18    38    1
    33    19    23    1
    34    19    26    1
    35    20    21   ar
    36    20    39    1
    37    23    25    1
    38    23    40    1
    39    23    41    1
    40    24    27    1
    41    24    42    1
    42    24    43    1
    43    25    28    1
    44    25    44    1
    45    25    45    1
    46    26    46    1
    47    26    47    1
    48    26    48    1
    49    27    29    2
    50    27    49    1
    51    28    30    2
    52    28    50    1
    53    29    31    1
    54    29    32    1
    55    30    33    1
    56    30    34    1
    57    31    58    1
    58    31    59    1
    59    31    60    1
    60    32    55    1
    61    32    56    1
    62    32    57    1
    63    33    64    1
    64    33    65    1
    65    33    66    1
    66    34    61    1
    67    34    62    1
    68    34    63    1
