@<TRIPOS>MOLECULE
IMPHY017275
 16 16 0 0 0
SMALL
GASTEIGER

@<TRIPOS>ATOM
      1 O           3.7601   -1.1739    0.0000 O.3     1  UNL1       -0.4542
      2 O           5.5202   -0.8952    0.0000 O.2     1  UNL1       -0.2453
      3 C           2.9511   -0.5861    0.0000 C.3     1  UNL1        0.1195
      4 C           3.2601    0.3649    0.0000 C.2     1  UNL1       -0.0346
      5 C           4.2601    0.3649    0.0000 C.2     1  UNL1        0.0330
      6 C           2.0000   -0.8952    0.0000 C.3     1  UNL1       -0.0240
      7 C           4.5691   -0.5861    0.0000 C.2     1  UNL1        0.3352
      8 C           4.8479    1.1739    0.0000 C.3     1  UNL1       -0.0331
      9 H           2.8541   -1.1985    0.0000 H       1  UNL1        0.0777
     10 H           2.8956    0.8665    0.0000 H       1  UNL1        0.0613
     11 H           1.8084   -0.3055    0.0000 H       1  UNL1        0.0268
     12 H           1.4103   -1.0868    0.0000 H       1  UNL1        0.0268
     13 H           2.1916   -1.4848    0.0000 H       1  UNL1        0.0268
     14 H           5.3494    0.8095    0.0000 H       1  UNL1        0.0280
     15 H           5.2123    1.6755    0.0000 H       1  UNL1        0.0280
     16 H           4.3463    1.5384    0.0000 H       1  UNL1        0.0280
@<TRIPOS>BOND
     1     1     3    1
     2     1     7    1
     3     2     7    2
     4     3     4    1
     5     3     6    1
     6     3     9    1
     7     4     5    2
     8     4    10    1
     9     5     7    1
    10     5     8    1
    11     6    11    1
    12     6    12    1
    13     6    13    1
    14     8    14    1
    15     8    15    1
    16     8    16    1
