@<TRIPOS>MOLECULE
IMPHY013917
 47 49 0 0 0
SMALL
GASTEIGER

@<TRIPOS>ATOM
      1 O           2.0000   -2.1072    0.0000 O.2     1  UNL1       -0.2968
      2 O           7.2622   -2.0831    0.0000 O.2     1  UNL1       -0.2920
      3 O           6.4082    2.4862    0.0000 O.3     1  UNL1       -0.4914
      4 O           8.1821    1.4620    0.0000 O.3     1  UNL1       -0.4914
      5 C           4.6641   -0.5831    0.0000 C.3     1  UNL1       -0.0018
      6 C           4.6641   -1.5831    0.0000 C.3     1  UNL1       -0.0128
      7 C           3.7702   -2.1178    0.0000 C.3     1  UNL1        0.0274
      8 C           3.7702   -0.0484    0.0000 C.3     1  UNL1       -0.0366
      9 C           5.5301   -2.0831    0.0000 C.3     1  UNL1        0.0150
     10 C           5.5301   -0.0831    0.0000 C.ar    1  UNL1       -0.0270
     11 C           2.8641   -0.5623    0.0000 C.3     1  UNL1        0.0072
     12 C           2.8641   -1.6039    0.0000 C.2     1  UNL1        0.1393
     13 C           4.6641    0.4169    0.0000 C.3     1  UNL1       -0.0552
     14 C           3.2802   -2.9895    0.0000 C.3     1  UNL1       -0.0528
     15 C           4.2801   -2.9779    0.0000 C.3     1  UNL1       -0.0528
     16 C           6.3961   -0.5831    0.0000 C.ar    1  UNL1        0.0248
     17 C           6.3961   -1.5831    0.0000 C.2     1  UNL1        0.1639
     18 C           5.5141    0.9584    0.0000 C.ar    1  UNL1       -0.0119
     19 C           7.3062   -0.0762    0.0000 C.ar    1  UNL1       -0.0055
     20 C           6.4121    1.4862    0.0000 C.ar    1  UNL1        0.1618
     21 C           7.3142    0.9654    0.0000 C.ar    1  UNL1        0.1622
     22 C           7.2723    2.9895    0.0000 C.3     1  UNL1        0.0790
     23 C           9.0462    0.9587    0.0000 C.3     1  UNL1        0.0790
     24 H           4.6706   -2.4331    0.0000 H       1  UNL1        0.0323
     25 H           4.1748    0.4214    0.0000 H       1  UNL1        0.0278
     26 H           3.3765    0.4306    0.0000 H       1  UNL1        0.0278
     27 H           5.1316   -2.5580    0.0000 H       1  UNL1        0.0348
     28 H           5.9286   -2.5580    0.0000 H       1  UNL1        0.0348
     29 H           2.6550    0.0214    0.0000 H       1  UNL1        0.0342
     30 H           2.2532   -0.6684    0.0000 H       1  UNL1        0.0342
     31 H           5.2841    0.4169    0.0000 H       1  UNL1        0.0238
     32 H           4.6641    1.0369    0.0000 H       1  UNL1        0.0238
     33 H           4.0441    0.4169    0.0000 H       1  UNL1        0.0238
     34 H           2.7397   -2.6857    0.0000 H       1  UNL1        0.0239
     35 H           2.9764   -3.5300    0.0000 H       1  UNL1        0.0239
     36 H           3.8207   -3.2933    0.0000 H       1  UNL1        0.0239
     37 H           3.7468   -3.2941    0.0000 H       1  UNL1        0.0239
     38 H           4.5963   -3.5112    0.0000 H       1  UNL1        0.0239
     39 H           4.8134   -2.6618    0.0000 H       1  UNL1        0.0239
     40 H           4.9736    1.2622    0.0000 H       1  UNL1        0.0658
     41 H           7.8395   -0.3924    0.0000 H       1  UNL1        0.0662
     42 H           7.5844    2.4538    0.0000 H       1  UNL1        0.0660
     43 H           7.8081    3.3016    0.0000 H       1  UNL1        0.0660
     44 H           6.9603    3.5252    0.0000 H       1  UNL1        0.0660
     45 H           8.7342    0.4229    0.0000 H       1  UNL1        0.0660
     46 H           9.5820    0.6466    0.0000 H       1  UNL1        0.0660
     47 H           9.3583    1.4944    0.0000 H       1  UNL1        0.0660
@<TRIPOS>BOND
     1     1    12    2
     2     2    17    2
     3     3    20    1
     4     3    22    1
     5     4    21    1
     6     4    23    1
     7     5     6    1
     8     5     8    1
     9     5    10    1
    10     5    13    1
    11     6     7    1
    12     6     9    1
    13     6    24    1
    14     7    12    1
    15     7    14    1
    16     7    15    1
    17     8    11    1
    18     8    25    1
    19     8    26    1
    20     9    17    1
    21     9    27    1
    22     9    28    1
    23    10    16   ar
    24    10    18   ar
    25    11    12    1
    26    11    29    1
    27    11    30    1
    28    13    31    1
    29    13    32    1
    30    13    33    1
    31    14    34    1
    32    14    35    1
    33    14    36    1
    34    15    37    1
    35    15    38    1
    36    15    39    1
    37    16    17    1
    38    16    19   ar
    39    18    20   ar
    40    18    40    1
    41    19    21   ar
    42    19    41    1
    43    20    21   ar
    44    22    42    1
    45    22    43    1
    46    22    44    1
    47    23    45    1
    48    23    46    1
    49    23    47    1
