@<TRIPOS>MOLECULE
IMPHY013708
 119 125 0 0 0
SMALL
GASTEIGER

@<TRIPOS>ATOM
      1 O           7.7331   -1.2823    0.0000 O.3     1  UNL1       -0.3449
      2 O           6.0010   -1.2823    0.0000 O.3     1  UNL1       -0.3405
      3 O           7.7331   -3.2823    0.0000 O.3     1  UNL1       -0.3841
      4 O           6.0010   -4.2823    0.0000 O.3     1  UNL1       -0.3864
      5 O           4.2690   -3.2823    0.0000 O.3     1  UNL1       -0.3402
      6 O           4.2690   -0.2823    0.0000 O.3     1  UNL1       -0.3924
      7 O           5.1350   -4.7823    0.0000 O.3     1  UNL1       -0.3461
      8 O           2.5369   -4.2823    0.0000 O.3     1  UNL1       -0.3841
      9 O           2.5369   -6.2823    0.0000 O.3     1  UNL1       -0.3864
     10 O           4.2690   -7.2823    0.0000 O.3     1  UNL1       -0.3869
     11 C           8.6342    3.4179    0.0000 C.3     1  UNL1       -0.0231
     12 C           8.6303    4.4179    0.0000 C.3     1  UNL1       -0.0233
     13 C           7.7701    2.9146    0.0000 C.3     1  UNL1       -0.0294
     14 C           7.7624    4.9146    0.0000 C.3     1  UNL1       -0.0313
     15 C           7.7580    1.8730    0.0000 C.3     1  UNL1       -0.0252
     16 C           7.7423    5.9560    0.0000 C.3     1  UNL1       -0.0258
     17 C           8.6383    6.4872    0.0000 C.3     1  UNL1       -0.0284
     18 C           8.6581    1.3487    0.0000 C.3     1  UNL1       -0.0278
     19 C           9.5461    2.9146    0.0000 C.3     1  UNL1       -0.0466
     20 C           9.5383    4.9282    0.0000 C.3     1  UNL1       -0.0464
     21 C           6.9021    3.4112    0.0000 C.3     1  UNL1       -0.0489
     22 C           6.8983    4.4112    0.0000 C.3     1  UNL1       -0.0491
     23 C           9.5424    5.9699    0.0000 C.3     1  UNL1       -0.0468
     24 C           9.5581    1.8730    0.0000 C.3     1  UNL1       -0.0486
     25 C           6.9666    6.6419    0.0000 C.3     1  UNL1       -0.0168
     26 C           8.6706    0.2638    0.0000 C.3     1  UNL1       -0.0052
     27 C           6.8081    1.3487    0.0000 C.3     1  UNL1       -0.0447
     28 C           9.6183    3.5954    0.0000 C.3     1  UNL1       -0.0588
     29 C           9.6158    4.2480    0.0000 C.3     1  UNL1       -0.0588
     30 C           8.4087    7.4969    0.0000 C.3     1  UNL1       -0.0468
     31 C           7.3776    7.5923    0.0000 C.3     1  UNL1       -0.0457
     32 C           6.8939    2.3763    0.0000 C.3     1  UNL1       -0.0590
     33 C           7.7331   -0.2823    0.0000 C.3     1  UNL1        0.0672
     34 C           6.7956    0.2638    0.0000 C.3     1  UNL1       -0.0255
     35 C           9.4985    6.9972    0.0000 C.3     1  UNL1       -0.0593
     36 C           9.6706    0.2715    0.0000 C.3     1  UNL1       -0.0572
     37 C           9.1773   -0.5983    0.0000 C.3     1  UNL1       -0.0572
     38 C           5.9905    6.4244    0.0000 C.2     1  UNL1       -0.0763
     39 C           5.3141    7.1609    0.0000 C.3     1  UNL1       -0.0438
     40 C           5.6909    5.4704    0.0000 C.2     1  UNL1       -0.0994
     41 C           6.8671   -1.7823    0.0000 C.3     1  UNL1        0.1882
     42 C           6.8671   -2.7823    0.0000 C.3     1  UNL1        0.1341
     43 C           6.0010   -3.2823    0.0000 C.3     1  UNL1        0.1144
     44 C           5.1350   -1.7823    0.0000 C.3     1  UNL1        0.1134
     45 C           5.1350   -2.7823    0.0000 C.3     1  UNL1        0.1184
     46 C           4.2690   -1.2823    0.0000 C.3     1  UNL1        0.0730
     47 C           4.2690   -4.2823    0.0000 C.3     1  UNL1        0.1880
     48 C           3.4030   -4.7823    0.0000 C.3     1  UNL1        0.1341
     49 C           3.4030   -5.7823    0.0000 C.3     1  UNL1        0.1137
     50 C           5.1350   -5.7823    0.0000 C.3     1  UNL1        0.0792
     51 C           4.2690   -6.2823    0.0000 C.3     1  UNL1        0.1069
     52 H           8.3058    2.6025    0.0000 H       1  UNL1        0.0312
     53 H           7.2219    5.2183    0.0000 H       1  UNL1        0.0309
     54 H           7.1795    5.6958    0.0000 H       1  UNL1        0.0315
     55 H           9.1974    1.0429    0.0000 H       1  UNL1        0.0312
     56 H          10.1581    2.8156    0.0000 H       1  UNL1        0.0271
     57 H           9.7484    3.5006    0.0000 H       1  UNL1        0.0271
     58 H           9.7451    4.3438    0.0000 H       1  UNL1        0.0271
     59 H          10.1496    5.0320    0.0000 H       1  UNL1        0.0271
     60 H           6.2911    3.5165    0.0000 H       1  UNL1        0.0268
     61 H           6.6923    2.8278    0.0000 H       1  UNL1        0.0268
     62 H           6.6840    4.9930    0.0000 H       1  UNL1        0.0268
     63 H           6.2881    4.3012    0.0000 H       1  UNL1        0.0268
     64 H          10.1528    5.8614    0.0000 H       1  UNL1        0.0271
     65 H           9.7536    6.5527    0.0000 H       1  UNL1        0.0271
     66 H           9.7739    1.2918    0.0000 H       1  UNL1        0.0268
     67 H          10.1677    1.9862    0.0000 H       1  UNL1        0.0268
     68 H           6.5715    7.1197    0.0000 H       1  UNL1        0.0348
     69 H           6.6058    1.9348    0.0000 H       1  UNL1        0.0271
     70 H           6.1961    1.2497    0.0000 H       1  UNL1        0.0271
     71 H           9.7283    2.9852    0.0000 H       1  UNL1        0.0235
     72 H          10.2284    3.7054    0.0000 H       1  UNL1        0.0235
     73 H           9.5083    4.2055    0.0000 H       1  UNL1        0.0235
     74 H           9.5105    3.6370    0.0000 H       1  UNL1        0.0235
     75 H          10.2268    4.1427    0.0000 H       1  UNL1        0.0235
     76 H           9.7211    4.8590    0.0000 H       1  UNL1        0.0235
     77 H           9.0243    7.5701    0.0000 H       1  UNL1        0.0271
     78 H           8.4006    8.1168    0.0000 H       1  UNL1        0.0271
     79 H           7.4993    8.2002    0.0000 H       1  UNL1        0.0271
     80 H           6.7858    7.7772    0.0000 H       1  UNL1        0.0271
     81 H           7.2060    2.9121    0.0000 H       1  UNL1        0.0235
     82 H           6.3582    2.6884    0.0000 H       1  UNL1        0.0235
     83 H           6.5818    1.8406    0.0000 H       1  UNL1        0.0235
     84 H           8.2706   -0.5913    0.0000 H       1  UNL1        0.0602
     85 H           6.1860    0.3769    0.0000 H       1  UNL1        0.0290
     86 H           6.5798   -0.3174    0.0000 H       1  UNL1        0.0290
     87 H           9.8146    6.4639    0.0000 H       1  UNL1        0.0235
     88 H          10.0318    7.3134    0.0000 H       1  UNL1        0.0235
     89 H           9.1823    7.5305    0.0000 H       1  UNL1        0.0235
     90 H           9.6754   -0.3485    0.0000 H       1  UNL1        0.0236
     91 H          10.2906    0.2763    0.0000 H       1  UNL1        0.0236
     92 H           9.6658    0.8915    0.0000 H       1  UNL1        0.0236
     93 H           8.6428   -0.9125    0.0000 H       1  UNL1        0.0236
     94 H           9.4914   -1.1329    0.0000 H       1  UNL1        0.0236
     95 H           9.7118   -0.2842    0.0000 H       1  UNL1        0.0236
     96 H           5.7708    7.5803    0.0000 H       1  UNL1        0.0274
     97 H           4.8948    7.6176    0.0000 H       1  UNL1        0.0274
     98 H           4.8575    6.7416    0.0000 H       1  UNL1        0.0274
     99 H           5.0857    5.3355    0.0000 H       1  UNL1        0.0534
    100 H           6.1103    5.0137    0.0000 H       1  UNL1        0.0534
    101 H           7.4040   -2.0923    0.0000 H       1  UNL1        0.0937
    102 H           6.8671   -3.4023    0.0000 H       1  UNL1        0.0671
    103 H           5.4641   -3.5923    0.0000 H       1  UNL1        0.0648
    104 H           5.1350   -1.1623    0.0000 H       1  UNL1        0.0647
    105 H           5.1350   -3.4023    0.0000 H       1  UNL1        0.0651
    106 H           8.2700   -2.9723    0.0000 H       1  UNL1        0.2101
    107 H           3.6584   -1.1747    0.0000 H       1  UNL1        0.0584
    108 H           4.0569   -1.8649    0.0000 H       1  UNL1        0.0584
    109 H           6.5380   -4.5923    0.0000 H       1  UNL1        0.2100
    110 H           3.7320   -3.9723    0.0000 H       1  UNL1        0.0937
    111 H           3.7320    0.0277    0.0000 H       1  UNL1        0.2095
    112 H           3.9399   -5.0923    0.0000 H       1  UNL1        0.0671
    113 H           3.4030   -6.4023    0.0000 H       1  UNL1        0.0647
    114 H           5.3471   -6.3649    0.0000 H       1  UNL1        0.0587
    115 H           5.7456   -5.6747    0.0000 H       1  UNL1        0.0587
    116 H           4.8059   -6.5923    0.0000 H       1  UNL1        0.0643
    117 H           2.0000   -4.5923    0.0000 H       1  UNL1        0.2101
    118 H           2.5369   -6.9023    0.0000 H       1  UNL1        0.2100
    119 H           4.8059   -7.5923    0.0000 H       1  UNL1        0.2100
@<TRIPOS>BOND
     1     1    33    1
     2     1    41    1
     3     2    41    1
     4     2    44    1
     5     3    42    1
     6     3   106    1
     7     4    43    1
     8     4   109    1
     9     5    45    1
    10     5    47    1
    11     6    46    1
    12     6   111    1
    13     7    47    1
    14     7    50    1
    15     8    48    1
    16     8   117    1
    17     9    49    1
    18     9   118    1
    19    10    51    1
    20    10   119    1
    21    11    12    1
    22    11    13    1
    23    11    19    1
    24    11    28    1
    25    12    14    1
    26    12    20    1
    27    12    29    1
    28    13    15    1
    29    13    21    1
    30    13    52    1
    31    14    16    1
    32    14    22    1
    33    14    53    1
    34    15    18    1
    35    15    27    1
    36    15    32    1
    37    16    17    1
    38    16    25    1
    39    16    54    1
    40    17    23    1
    41    17    30    1
    42    17    35    1
    43    18    24    1
    44    18    26    1
    45    18    55    1
    46    19    24    1
    47    19    56    1
    48    19    57    1
    49    20    23    1
    50    20    58    1
    51    20    59    1
    52    21    22    1
    53    21    60    1
    54    21    61    1
    55    22    62    1
    56    22    63    1
    57    23    64    1
    58    23    65    1
    59    24    66    1
    60    24    67    1
    61    25    31    1
    62    25    38    1
    63    25    68    1
    64    26    33    1
    65    26    36    1
    66    26    37    1
    67    27    34    1
    68    27    69    1
    69    27    70    1
    70    28    71    1
    71    28    72    1
    72    28    73    1
    73    29    74    1
    74    29    75    1
    75    29    76    1
    76    30    31    1
    77    30    77    1
    78    30    78    1
    79    31    79    1
    80    31    80    1
    81    32    81    1
    82    32    82    1
    83    32    83    1
    84    33    34    1
    85    33    84    1
    86    34    85    1
    87    34    86    1
    88    35    87    1
    89    35    88    1
    90    35    89    1
    91    36    90    1
    92    36    91    1
    93    36    92    1
    94    37    93    1
    95    37    94    1
    96    37    95    1
    97    38    39    1
    98    38    40    2
    99    39    96    1
   100    39    97    1
   101    39    98    1
   102    40    99    1
   103    40   100    1
   104    41    42    1
   105    41   101    1
   106    42    43    1
   107    42   102    1
   108    43    45    1
   109    43   103    1
   110    44    45    1
   111    44    46    1
   112    44   104    1
   113    45   105    1
   114    46   107    1
   115    46   108    1
   116    47    48    1
   117    47   110    1
   118    48    49    1
   119    48   112    1
   120    49    51    1
   121    49   113    1
   122    50    51    1
   123    50   114    1
   124    50   115    1
   125    51   116    1
