@<TRIPOS>MOLECULE
IMPHY004535
 19 18 0 0 0
SMALL
GASTEIGER

@<TRIPOS>ATOM
      1 S           4.5981    0.7500    0.0000 S.3     1  UNL1       -0.0903
      2 S           5.4641    0.2500    0.0000 S.3     1  UNL1       -0.0963
      3 C           3.7320    0.2500    0.0000 C.3     1  UNL1        0.0124
      4 C           2.8660    0.7500    0.0000 C.3     1  UNL1       -0.0435
      5 C           3.7320   -0.7500    0.0000 C.3     1  UNL1       -0.0525
      6 C           2.0000    0.2500    0.0000 C.3     1  UNL1       -0.0643
      7 C           6.3301    0.7500    0.0000 C.3     1  UNL1       -0.0078
      8 H           4.2690   -0.0600    0.0000 H       1  UNL1        0.0417
      9 H           3.2646    1.2250    0.0000 H       1  UNL1        0.0273
     10 H           2.4675    1.2250    0.0000 H       1  UNL1        0.0273
     11 H           3.1120   -0.7500    0.0000 H       1  UNL1        0.0241
     12 H           3.7320   -1.3700    0.0000 H       1  UNL1        0.0241
     13 H           4.3520   -0.7500    0.0000 H       1  UNL1        0.0241
     14 H           1.6900    0.7869    0.0000 H       1  UNL1        0.0230
     15 H           1.4631   -0.0600    0.0000 H       1  UNL1        0.0230
     16 H           2.3100   -0.2869    0.0000 H       1  UNL1        0.0230
     17 H           6.6401    0.2131    0.0000 H       1  UNL1        0.0349
     18 H           6.8671    1.0600    0.0000 H       1  UNL1        0.0349
     19 H           6.0201    1.2869    0.0000 H       1  UNL1        0.0349
@<TRIPOS>BOND
     1     1     2    1
     2     1     3    1
     3     2     7    1
     4     3     4    1
     5     3     5    1
     6     3     8    1
     7     4     6    1
     8     4     9    1
     9     4    10    1
    10     5    11    1
    11     5    12    1
    12     5    13    1
    13     6    14    1
    14     6    15    1
    15     6    16    1
    16     7    17    1
    17     7    18    1
    18     7    19    1
