@<TRIPOS>MOLECULE
IMPHY015451
 29 28 0 0 0
SMALL
GASTEIGER

@<TRIPOS>ATOM
      1 O           9.7942   -0.0600    0.0000 O.2     1  UNL1       -0.2963
      2 C           3.7320    0.4400    0.0000 C.3     1  UNL1       -0.0507
      3 C           2.8660   -0.0600    0.0000 C.3     1  UNL1       -0.0467
      4 C           4.5981   -0.0600    0.0000 C.3     1  UNL1       -0.0525
      5 C           5.4641    0.4400    0.0000 C.3     1  UNL1       -0.0496
      6 C           2.0000    0.4400    0.0000 C.3     1  UNL1       -0.0627
      7 C           2.8660   -1.0600    0.0000 C.3     1  UNL1       -0.0627
      8 C           6.3301   -0.0600    0.0000 C.3     1  UNL1       -0.0344
      9 C           7.1962    0.4400    0.0000 C.2     1  UNL1       -0.0810
     10 C           8.0622   -0.0600    0.0000 C.2     1  UNL1       -0.0264
     11 C           8.9282    0.4400    0.0000 C.2     1  UNL1        0.1428
     12 H           4.1306    0.9149    0.0000 H       1  UNL1        0.0268
     13 H           3.3335    0.9149    0.0000 H       1  UNL1        0.0268
     14 H           2.8660    0.5600    0.0000 H       1  UNL1        0.0295
     15 H           4.1996   -0.5349    0.0000 H       1  UNL1        0.0265
     16 H           4.9966   -0.5349    0.0000 H       1  UNL1        0.0265
     17 H           5.8626    0.9149    0.0000 H       1  UNL1        0.0268
     18 H           5.0656    0.9149    0.0000 H       1  UNL1        0.0268
     19 H           2.3100    0.9769    0.0000 H       1  UNL1        0.0232
     20 H           1.4631    0.7500    0.0000 H       1  UNL1        0.0232
     21 H           1.6900   -0.0969    0.0000 H       1  UNL1        0.0232
     22 H           2.2460   -1.0600    0.0000 H       1  UNL1        0.0232
     23 H           2.8660   -1.6800    0.0000 H       1  UNL1        0.0232
     24 H           3.4860   -1.0600    0.0000 H       1  UNL1        0.0232
     25 H           5.9316   -0.5349    0.0000 H       1  UNL1        0.0307
     26 H           6.7287   -0.5349    0.0000 H       1  UNL1        0.0307
     27 H           7.1962    1.0600    0.0000 H       1  UNL1        0.0573
     28 H           8.0622   -0.6800    0.0000 H       1  UNL1        0.0646
     29 H           8.9282    1.0600    0.0000 H       1  UNL1        0.1075
@<TRIPOS>BOND
     1     1    11    2
     2     2     3    1
     3     2     4    1
     4     2    12    1
     5     2    13    1
     6     3     6    1
     7     3     7    1
     8     3    14    1
     9     4     5    1
    10     4    15    1
    11     4    16    1
    12     5     8    1
    13     5    17    1
    14     5    18    1
    15     6    19    1
    16     6    20    1
    17     6    21    1
    18     7    22    1
    19     7    23    1
    20     7    24    1
    21     8     9    1
    22     8    25    1
    23     8    26    1
    24     9    10    2
    25     9    27    1
    26    10    11    1
    27    10    28    1
    28    11    29    1
