@<TRIPOS>MOLECULE
IMPHY007823
 51 53 0 0 0
SMALL
GASTEIGER

@<TRIPOS>ATOM
      1 O           7.1719   -0.0052    0.0000 O.3     1  UNL1       -0.3632
      2 O           2.0000   -1.0121    0.0000 O.2     1  UNL1       -0.2968
      3 C           4.5298   -0.5121    0.0000 C.3     1  UNL1       -0.0163
      4 C           4.5298   -1.5121    0.0000 C.3     1  UNL1       -0.0230
      5 C           5.3958   -0.0121    0.0000 C.3     1  UNL1       -0.0059
      6 C           6.2619   -0.5121    0.0000 C.3     1  UNL1        0.0712
      7 C           3.5836   -1.8168    0.0000 C.3     1  UNL1        0.0267
      8 C           5.3958   -2.0121    0.0000 C.3     1  UNL1       -0.0462
      9 C           3.5836   -0.2073    0.0000 C.3     1  UNL1        0.0124
     10 C           6.2619   -1.5121    0.0000 C.3     1  UNL1       -0.0234
     11 C           5.3798    1.0294    0.0000 C.3     1  UNL1       -0.0442
     12 C           3.0000   -1.0121    0.0000 C.2     1  UNL1        0.1397
     13 C           4.5298    0.4879    0.0000 C.3     1  UNL1       -0.0585
     14 C           6.2778    1.5572    0.0000 C.3     1  UNL1       -0.0200
     15 C           7.1799    1.0364    0.0000 C.3     1  UNL1        0.0853
     16 C           7.1279   -1.0121    0.0000 C.3     1  UNL1       -0.0355
     17 C           2.7736   -2.4032    0.0000 C.3     1  UNL1       -0.0528
     18 C           3.8910   -2.7684    0.0000 C.3     1  UNL1       -0.0528
     19 C           8.1799    1.0325    0.0000 C.3     1  UNL1       -0.0322
     20 C           7.6832    1.9005    0.0000 C.2     1  UNL1       -0.0599
     21 C           7.1866    2.7684    0.0000 C.2     1  UNL1       -0.1000
     22 H           4.4399   -2.3573    0.0000 H       1  UNL1        0.0315
     23 H           6.1287    0.4186    0.0000 H       1  UNL1        0.0334
     24 H           4.9973   -2.4870    0.0000 H       1  UNL1        0.0269
     25 H           5.7944   -2.4870    0.0000 H       1  UNL1        0.0269
     26 H           3.8346    0.3596    0.0000 H       1  UNL1        0.0347
     27 H           3.0462    0.1019    0.0000 H       1  UNL1        0.0347
     28 H           6.4739   -2.0947    0.0000 H       1  UNL1        0.0293
     29 H           6.8725   -1.4044    0.0000 H       1  UNL1        0.0293
     30 H           5.1618    1.6098    0.0000 H       1  UNL1        0.0270
     31 H           4.7706    0.9139    0.0000 H       1  UNL1        0.0270
     32 H           5.1498    0.4879    0.0000 H       1  UNL1        0.0235
     33 H           4.5298    1.1079    0.0000 H       1  UNL1        0.0235
     34 H           3.9098    0.4879    0.0000 H       1  UNL1        0.0235
     35 H           6.6751    2.0332    0.0000 H       1  UNL1        0.0296
     36 H           5.8769    2.0301    0.0000 H       1  UNL1        0.0296
     37 H           6.8179   -1.5490    0.0000 H       1  UNL1        0.0257
     38 H           7.6648   -1.3221    0.0000 H       1  UNL1        0.0257
     39 H           7.4379   -0.4751    0.0000 H       1  UNL1        0.0257
     40 H           2.4100   -1.9010    0.0000 H       1  UNL1        0.0239
     41 H           3.3010   -2.9590    0.0000 H       1  UNL1        0.0239
     42 H           4.0816   -3.3584    0.0000 H       1  UNL1        0.0239
     43 H           2.2714   -2.7668    0.0000 H       1  UNL1        0.0239
     44 H           3.1371   -2.9054    0.0000 H       1  UNL1        0.0239
     45 H           4.4810   -2.5778    0.0000 H       1  UNL1        0.0239
     46 H           8.1775    0.4125    0.0000 H       1  UNL1        0.0260
     47 H           8.7999    1.0301    0.0000 H       1  UNL1        0.0260
     48 H           8.1823    1.6525    0.0000 H       1  UNL1        0.0260
     49 H           8.3032    1.8981    0.0000 H       1  UNL1        0.0594
     50 H           7.4986    3.3041    0.0000 H       1  UNL1        0.0533
     51 H           6.5666    2.7708    0.0000 H       1  UNL1        0.0533
@<TRIPOS>BOND
     1     1     6    1
     2     1    15    1
     3     2    12    2
     4     3     4    1
     5     3     5    1
     6     3     9    1
     7     3    13    1
     8     4     7    1
     9     4     8    1
    10     4    22    1
    11     5     6    1
    12     5    11    1
    13     5    23    1
    14     6    10    1
    15     6    16    1
    16     7    12    1
    17     7    17    1
    18     7    18    1
    19     8    10    1
    20     8    24    1
    21     8    25    1
    22     9    12    1
    23     9    26    1
    24     9    27    1
    25    10    28    1
    26    10    29    1
    27    11    14    1
    28    11    30    1
    29    11    31    1
    30    13    32    1
    31    13    33    1
    32    13    34    1
    33    14    15    1
    34    14    35    1
    35    14    36    1
    36    15    19    1
    37    15    20    1
    38    16    37    1
    39    16    38    1
    40    16    39    1
    41    17    40    1
    42    17    43    1
    43    17    44    1
    44    18    41    1
    45    18    42    1
    46    18    45    1
    47    19    46    1
    48    19    47    1
    49    19    48    1
    50    20    21    2
    51    20    49    1
    52    21    50    1
    53    21    51    1
