@<TRIPOS>MOLECULE
IMPHY017246
 23 24 0 0 0
SMALL
GASTEIGER

@<TRIPOS>ATOM
      1 O           3.5698   -1.8520    0.0000 O.3     1  UNL1       -0.4804
      2 O           2.0000   -1.1201    0.0000 O.2     1  UNL1       -0.2507
      3 C           5.0503    1.4313    0.0000 C.3     1  UNL1       -0.0190
      4 C           4.7915    0.4654    0.0000 C.3     1  UNL1       -0.0092
      5 C           3.0768    0.8131    0.0000 C.3     1  UNL1       -0.0241
      6 C           3.4188   -0.1266    0.0000 C.3     1  UNL1        0.0656
      7 C           4.3137    2.4140    0.0000 C.3     1  UNL1       -0.0394
      8 C           6.4493    0.9225    0.0000 C.2     1  UNL1       -0.0843
      9 C           6.1905   -0.0434    0.0000 C.2     1  UNL1       -0.0838
     10 C           2.1705    1.2357    0.0000 C.3     1  UNL1       -0.0611
     11 C           2.9962   -1.0329    0.0000 C.2     1  UNL1        0.3087
     12 H           5.0363    0.8115    0.0000 H       1  UNL1        0.0346
     13 H           4.8096   -0.1543    0.0000 H       1  UNL1        0.0351
     14 H           3.1179    1.4317    0.0000 H       1  UNL1        0.0312
     15 H           3.8508   -0.5713    0.0000 H       1  UNL1        0.0422
     16 H           4.6315    2.9463    0.0000 H       1  UNL1        0.0277
     17 H           3.7006    2.5059    0.0000 H       1  UNL1        0.0277
     18 H           6.9992    1.2089    0.0000 H       1  UNL1        0.0572
     19 H           6.4768   -0.5933    0.0000 H       1  UNL1        0.0572
     20 H           2.4325    1.7976    0.0000 H       1  UNL1        0.0233
     21 H           1.6086    1.4977    0.0000 H       1  UNL1        0.0233
     22 H           1.9085    0.6738    0.0000 H       1  UNL1        0.0233
     23 H           3.3078   -2.4140    0.0000 H       1  UNL1        0.2951
@<TRIPOS>BOND
     1     1    11    1
     2     1    23    1
     3     2    11    2
     4     3     5    1
     5     3     7    1
     6     3     8    1
     7     3    12    1
     8     4     6    1
     9     4     7    1
    10     4     9    1
    11     4    13    1
    12     5     6    1
    13     5    10    1
    14     5    14    1
    15     6    11    1
    16     6    15    1
    17     7    16    1
    18     7    17    1
    19     8     9    2
    20     8    18    1
    21     9    19    1
    22    10    20    1
    23    10    21    1
    24    10    22    1
