@<TRIPOS>MOLECULE
IMPHY013999
 26 26 0 0 0
SMALL
GASTEIGER

@<TRIPOS>ATOM
      1 C           2.8660   -1.2500    0.0000 C.ar    1  UNL1       -0.0250
      2 C           4.5981    2.7500    0.0000 C.3     1  UNL1       -0.0373
      3 C           4.5981    1.7500    0.0000 C.2     1  UNL1       -0.0843
      4 C           2.8660   -0.2500    0.0000 C.2     1  UNL1       -0.0546
      5 C           2.0000   -1.7500    0.0000 C.ar    1  UNL1       -0.0546
      6 C           3.7320   -1.7500    0.0000 C.ar    1  UNL1       -0.0546
      7 C           3.7320    1.2500    0.0000 C.2     1  UNL1       -0.0657
      8 C           3.7320    0.2500    0.0000 C.2     1  UNL1       -0.0615
      9 C           5.4641    3.2500    0.0000 C.3     1  UNL1       -0.0618
     10 C           2.0000   -2.7500    0.0000 C.ar    1  UNL1       -0.0612
     11 C           3.7320   -2.7500    0.0000 C.ar    1  UNL1       -0.0612
     12 C           2.8660   -3.2500    0.0000 C.ar    1  UNL1       -0.0617
     13 H           4.3860    3.3326    0.0000 H       1  UNL1        0.0305
     14 H           3.9875    2.6423    0.0000 H       1  UNL1        0.0305
     15 H           5.1350    1.4400    0.0000 H       1  UNL1        0.0572
     16 H           2.3291    0.0600    0.0000 H       1  UNL1        0.0623
     17 H           1.4631   -1.4400    0.0000 H       1  UNL1        0.0623
     18 H           4.2690   -1.4400    0.0000 H       1  UNL1        0.0623
     19 H           3.1951    1.5600    0.0000 H       1  UNL1        0.0614
     20 H           4.2690   -0.0600    0.0000 H       1  UNL1        0.0618
     21 H           5.7741    2.7131    0.0000 H       1  UNL1        0.0233
     22 H           6.0010    3.5600    0.0000 H       1  UNL1        0.0233
     23 H           5.1541    3.7869    0.0000 H       1  UNL1        0.0233
     24 H           1.4631   -3.0600    0.0000 H       1  UNL1        0.0618
     25 H           4.2690   -3.0600    0.0000 H       1  UNL1        0.0618
     26 H           2.8660   -3.8700    0.0000 H       1  UNL1        0.0618
@<TRIPOS>BOND
     1     1     4    1
     2     1     5   ar
     3     1     6   ar
     4     2     3    1
     5     2     9    1
     6     2    13    1
     7     2    14    1
     8     3     7    2
     9     3    15    1
    10     4     8    2
    11     4    16    1
    12     5    10   ar
    13     5    17    1
    14     6    11   ar
    15     6    18    1
    16     7     8    1
    17     7    19    1
    18     8    20    1
    19     9    21    1
    20     9    22    1
    21     9    23    1
    22    10    12   ar
    23    10    24    1
    24    11    12   ar
    25    11    25    1
    26    12    26    1
