@<TRIPOS>MOLECULE
IMPHY016804
 19 19 0 0 0
SMALL
GASTEIGER

@<TRIPOS>ATOM
      1 O           2.8660    1.7500    0.0000 O.3     1  UNL1       -0.4951
      2 C           2.8660   -1.2500    0.0000 C.ar    1  UNL1       -0.0502
      3 C           2.8660    0.7500    0.0000 C.ar    1  UNL1        0.1201
      4 C           2.0000   -0.7500    0.0000 C.ar    1  UNL1       -0.0554
      5 C           3.7320   -0.7500    0.0000 C.ar    1  UNL1       -0.0554
      6 C           2.0000    0.2500    0.0000 C.ar    1  UNL1       -0.0197
      7 C           3.7320    0.2500    0.0000 C.ar    1  UNL1       -0.0197
      8 C           2.8660   -2.2500    0.0000 C.3     1  UNL1       -0.0397
      9 C           3.7320    2.2500    0.0000 C.3     1  UNL1        0.0788
     10 H           1.4631   -1.0600    0.0000 H       1  UNL1        0.0621
     11 H           4.2690   -1.0600    0.0000 H       1  UNL1        0.0621
     12 H           1.4631    0.5600    0.0000 H       1  UNL1        0.0654
     13 H           4.2690    0.5600    0.0000 H       1  UNL1        0.0654
     14 H           2.2460   -2.2500    0.0000 H       1  UNL1        0.0278
     15 H           2.8660   -2.8700    0.0000 H       1  UNL1        0.0278
     16 H           3.4860   -2.2500    0.0000 H       1  UNL1        0.0278
     17 H           4.0420    1.7131    0.0000 H       1  UNL1        0.0660
     18 H           4.2690    2.5600    0.0000 H       1  UNL1        0.0660
     19 H           3.4220    2.7869    0.0000 H       1  UNL1        0.0660
@<TRIPOS>BOND
     1     1     3    1
     2     1     9    1
     3     2     4   ar
     4     2     5   ar
     5     2     8    1
     6     3     6   ar
     7     3     7   ar
     8     4     6   ar
     9     4    10    1
    10     5     7   ar
    11     5    11    1
    12     6    12    1
    13     7    13    1
    14     8    14    1
    15     8    15    1
    16     8    16    1
    17     9    17    1
    18     9    18    1
    19     9    19    1
