@<TRIPOS>MOLECULE
IMPHY000363
 24 25 0 0 0
SMALL
GASTEIGER

@<TRIPOS>ATOM
      1 O           4.3709    0.6589    0.0000 O.3     1  UNL1       -0.3742
      2 O           6.2619   -1.0974    0.0000 O.2     1  UNL1       -0.2719
      3 O           6.1955    1.8748    0.0000 O.3     1  UNL1       -0.4805
      4 O           4.4727    1.6967    0.0000 O.2     1  UNL1       -0.2509
      5 N           4.6783   -1.9022    0.0000 N.am    1  UNL1       -0.2825
      6 C           4.6783   -0.2927    0.0000 C.3     1  UNL1        0.1783
      7 C           3.7320   -0.5974    0.0000 C.ar    1  UNL1        0.0145
      8 C           5.4883    0.2937    0.0000 C.3     1  UNL1        0.0864
      9 C           3.7320   -1.5974    0.0000 C.ar    1  UNL1        0.0399
     10 C           5.2619   -1.0974    0.0000 C.2     1  UNL1        0.2541
     11 C           2.8660   -0.0974    0.0000 C.ar    1  UNL1       -0.0536
     12 C           2.8660   -2.0974    0.0000 C.ar    1  UNL1       -0.0401
     13 C           2.0000   -0.5974    0.0000 C.ar    1  UNL1       -0.0613
     14 C           5.3855    1.2884    0.0000 C.2     1  UNL1        0.3083
     15 C           2.0000   -1.5974    0.0000 C.ar    1  UNL1       -0.0600
     16 H           5.7591   -0.2640    0.0000 H       1  UNL1        0.0414
     17 H           6.0846    0.4635    0.0000 H       1  UNL1        0.0414
     18 H           4.8709   -2.4915    0.0000 H       1  UNL1        0.1549
     19 H           2.8660    0.5226    0.0000 H       1  UNL1        0.0622
     20 H           2.8660   -2.7174    0.0000 H       1  UNL1        0.0636
     21 H           3.7647    0.7888    0.0000 H       1  UNL1        0.2113
     22 H           1.4631   -0.2874    0.0000 H       1  UNL1        0.0618
     23 H           1.4631   -1.9074    0.0000 H       1  UNL1        0.0618
     24 H           6.1318    2.4915    0.0000 H       1  UNL1        0.2951
@<TRIPOS>BOND
     1     1     6    1
     2     1    21    1
     3     2    10    2
     4     3    14    1
     5     3    24    1
     6     4    14    2
     7     5     9    1
     8     5    10   am
     9     5    18    1
    10     6     7    1
    11     6     8    1
    12     6    10    1
    13     7     9   ar
    14     7    11   ar
    15     8    14    1
    16     8    16    1
    17     8    17    1
    18     9    12   ar
    19    11    13   ar
    20    11    19    1
    21    12    15   ar
    22    12    20    1
    23    13    15   ar
    24    13    22    1
    25    15    23    1
