@<TRIPOS>MOLECULE
IMPHY014542
 68 72 0 0 0
SMALL
GASTEIGER

@<TRIPOS>ATOM
      1 O           7.0597    5.0257    0.0000 O.3     1  UNL1       -0.3842
      2 O           6.8671   -2.1806    0.0000 O.3     1  UNL1       -0.3403
      3 O          10.1430    1.5616    0.0000 O.3     1  UNL1       -0.4804
      4 O           9.7719   -0.1303    0.0000 O.2     1  UNL1       -0.2507
      5 O           9.2684   -1.5139    0.0000 O.3     1  UNL1       -0.4802
      6 O           7.7752   -2.3914    0.0000 O.2     1  UNL1       -0.2503
      7 O           5.1350   -2.1806    0.0000 O.3     1  UNL1       -0.3405
      8 O           6.8671   -4.1806    0.0000 O.3     1  UNL1       -0.3841
      9 O           5.1350   -5.1806    0.0000 O.3     1  UNL1       -0.3864
     10 O           3.4030   -4.1806    0.0000 O.3     1  UNL1       -0.3865
     11 O           2.5369   -2.6806    0.0000 O.3     1  UNL1       -0.3924
     12 C           8.0946    1.9480    0.0000 C.3     1  UNL1        0.0124
     13 C           8.4923    1.0370    0.0000 C.3     1  UNL1        0.0738
     14 C           7.7498    0.3759    0.0000 C.3     1  UNL1        0.0160
     15 C           7.3896    2.8963    0.0000 C.3     1  UNL1       -0.0097
     16 C           7.0996    1.8482    0.0000 C.2     1  UNL1       -0.0586
     17 C           7.3784    4.0778    0.0000 C.3     1  UNL1        0.0879
     18 C           8.6369    2.7882    0.0000 C.3     1  UNL1       -0.0190
     19 C           6.8908    0.8763    0.0000 C.2     1  UNL1       -0.0427
     20 C           7.7618   -0.6595    0.0000 C.3     1  UNL1        0.1019
     21 C           6.4012    2.5639    0.0000 C.3     1  UNL1       -0.0277
     22 C           6.5252    3.5562    0.0000 C.3     1  UNL1       -0.0164
     23 C           8.3182    3.7360    0.0000 C.2     1  UNL1       -0.0446
     24 C           6.8671   -1.1806    0.0000 C.3     1  UNL1        0.0962
     25 C           9.4691    0.8228    0.0000 C.2     1  UNL1        0.3093
     26 C           5.9843    0.3759    0.0000 C.2     1  UNL1       -0.0598
     27 C           8.7618   -0.6517    0.0000 C.3     1  UNL1       -0.0461
     28 C           5.9723   -0.6595    0.0000 C.2     1  UNL1       -0.0542
     29 C           8.2685   -1.5216    0.0000 C.2     1  UNL1        0.3141
     30 C           9.0339    4.4345    0.0000 C.2     1  UNL1       -0.0967
     31 C           6.0010   -2.6806    0.0000 C.3     1  UNL1        0.1886
     32 C           6.0010   -3.6806    0.0000 C.3     1  UNL1        0.1341
     33 C           5.1350   -4.1806    0.0000 C.3     1  UNL1        0.1141
     34 C           4.2690   -2.6806    0.0000 C.3     1  UNL1        0.1130
     35 C           4.2690   -3.6806    0.0000 C.3     1  UNL1        0.1119
     36 C           3.4030   -2.1806    0.0000 C.3     1  UNL1        0.0730
     37 H           8.6491    0.4371    0.0000 H       1  UNL1        0.0428
     38 H           8.5274    0.0325    0.0000 H       1  UNL1        0.0369
     39 H           6.7980    3.0820    0.0000 H       1  UNL1        0.0305
     40 H           7.0304    2.3909    0.0000 H       1  UNL1        0.0305
     41 H           9.0700    2.3445    0.0000 H       1  UNL1        0.0319
     42 H           9.1659    3.1116    0.0000 H       1  UNL1        0.0319
     43 H           5.8185    2.7758    0.0000 H       1  UNL1        0.0311
     44 H           6.0649    2.0430    0.0000 H       1  UNL1        0.0311
     45 H           6.3276    4.1438    0.0000 H       1  UNL1        0.0299
     46 H           5.9083    3.4943    0.0000 H       1  UNL1        0.0299
     47 H           7.4046   -1.4896    0.0000 H       1  UNL1        0.0652
     48 H           5.4522    0.6942    0.0000 H       1  UNL1        0.0618
     49 H           8.7666   -1.2717    0.0000 H       1  UNL1        0.0241
     50 H           9.3818   -0.6470    0.0000 H       1  UNL1        0.0241
     51 H           8.7570   -0.0318    0.0000 H       1  UNL1        0.0241
     52 H           5.4330   -0.9653    0.0000 H       1  UNL1        0.0598
     53 H           7.4698    5.4906    0.0000 H       1  UNL1        0.2106
     54 H           9.6307    4.2667    0.0000 H       1  UNL1        0.0535
     55 H           8.8807    5.0353    0.0000 H       1  UNL1        0.0535
     56 H          10.7486    1.4288    0.0000 H       1  UNL1        0.2951
     57 H           6.0010   -2.0606    0.0000 H       1  UNL1        0.0938
     58 H           9.5826   -2.0484    0.0000 H       1  UNL1        0.2951
     59 H           6.5380   -3.3706    0.0000 H       1  UNL1        0.0671
     60 H           5.6720   -4.4906    0.0000 H       1  UNL1        0.0648
     61 H           4.2690   -2.0606    0.0000 H       1  UNL1        0.0647
     62 H           3.7320   -3.3706    0.0000 H       1  UNL1        0.0647
     63 H           6.8671   -4.8006    0.0000 H       1  UNL1        0.2101
     64 H           3.8015   -1.7057    0.0000 H       1  UNL1        0.0584
     65 H           3.0044   -1.7057    0.0000 H       1  UNL1        0.0584
     66 H           4.5981   -5.4906    0.0000 H       1  UNL1        0.2100
     67 H           3.4030   -4.8006    0.0000 H       1  UNL1        0.2100
     68 H           2.0000   -2.3706    0.0000 H       1  UNL1        0.2095
@<TRIPOS>BOND
     1    17     1    1
     2     1    53    1
     3    24     2    1
     4    31     2    1
     5     3    25    1
     6     3    56    1
     7     4    25    2
     8     5    29    1
     9     5    58    1
    10     6    29    2
    11     7    31    1
    12     7    34    1
    13    32     8    1
    14     8    63    1
    15    33     9    1
    16     9    66    1
    17    35    10    1
    18    10    67    1
    19    11    36    1
    20    11    68    1
    21    12    13    1
    22    12    15    1
    23    12    16    1
    24    12    18    1
    25    13    14    1
    26    13    25    1
    27    13    37    1
    28    14    19    1
    29    14    20    1
    30    14    38    1
    31    15    17    1
    32    15    39    1
    33    15    40    1
    34    16    19    2
    35    16    21    1
    36    17    22    1
    37    17    23    1
    38    18    23    1
    39    18    41    1
    40    18    42    1
    41    19    26    1
    42    20    24    1
    43    20    27    1
    44    20    29    1
    45    21    22    1
    46    21    43    1
    47    21    44    1
    48    22    45    1
    49    22    46    1
    50    23    30    2
    51    24    28    1
    52    24    47    1
    53    26    28    2
    54    26    48    1
    55    27    49    1
    56    27    50    1
    57    27    51    1
    58    28    52    1
    59    30    54    1
    60    30    55    1
    61    31    32    1
    62    31    57    1
    63    32    33    1
    64    32    59    1
    65    33    35    1
    66    33    60    1
    67    34    35    1
    68    34    36    1
    69    34    61    1
    70    35    62    1
    71    36    64    1
    72    36    65    1
