@<TRIPOS>MOLECULE
IMPHY012197
 32 34 0 0 0
SMALL
GASTEIGER

@<TRIPOS>ATOM
      1 O4*         5.9405    0.8252    0.0000 O.3     1    A1       -0.3457
      2 O2*         3.4026    1.3296    0.0000 O.3     1    A1       -0.3847
      3 O3*         4.6844    3.0874    0.0000 O.3     1    A1       -0.3864
      4 O5*         7.6651    2.0032    0.0000 O.3     1    A1       -0.3924
      5 N9          4.6783   -0.4327    0.0000 N.ar    1    A1       -0.2855
      6 N7          4.6783   -2.0422    0.0000 N.ar    1    A1       -0.2306
      7 N3          2.8660   -0.2375    0.0000 N.ar    1    A1       -0.2159
      8 N1          2.0000   -1.7374    0.0000 N.ar    1    A1       -0.2188
      9 N6          2.8660   -3.2374    0.0000 N.pl3   1    A1       -0.3413
     10 C2*         4.4026    1.3278    0.0000 C.3     1    A1        0.1285
     11 C1*         4.9889    0.5178    0.0000 C.3     1    A1        0.1667
     12 C3*         4.9917    2.1358    0.0000 C.3     1    A1        0.1135
     13 C4*         5.9422    1.8252    0.0000 C.3     1    A1        0.1126
     14 C5*         6.7523    2.4116    0.0000 C.3     1    A1        0.0730
     15 C4          3.7320   -0.7375    0.0000 C.ar    1    A1        0.1674
     16 C8          5.2619   -1.2374    0.0000 C.ar    1    A1        0.1004
     17 C5          3.7320   -1.7374    0.0000 C.ar    1    A1        0.1473
     18 C6          2.8660   -2.2374    0.0000 C.ar    1    A1        0.1472
     19 C2          2.0000   -0.7375    0.0000 C.ar    1    A1        0.1205
     20 H2*         4.1220    1.8807    0.0000 H       1    A1        0.0665
     21 H1*         5.4266    0.0786    0.0000 H       1    A1        0.0866
     22 H3*         5.4309    2.5735    0.0000 H       1    A1        0.0647
     23 H4*         6.4942    1.5427    0.0000 H       1    A1        0.0647
     24 H5*1        7.0999    2.9250    0.0000 H       1    A1        0.0584
     25 H5*2        6.3070    2.8430    0.0000 H       1    A1        0.0584
     26 H2*         3.0935    1.8670    0.0000 H       1    A1        0.2101
     27 H3*         5.1000    3.5474    0.0000 H       1    A1        0.2100
     28 H8          5.8819   -1.2374    0.0000 H       1    A1        0.1030
     29 H5*         8.1674    2.3668    0.0000 H       1    A1        0.2095
     30 H2          1.4631   -0.4275    0.0000 H       1    A1        0.1048
     31 H61         2.3291   -3.5474    0.0000 H       1    A1        0.1438
     32 H62         3.4030   -3.5474    0.0000 H       1    A1        0.1438
@<TRIPOS>BOND
     1     1    11    1
     2     1    13    1
     3    10     2    1
     4     2    26    1
     5    12     3    1
     6     3    27    1
     7     4    14    1
     8     4    29    1
     9    11     5    1
    10     5    15   ar
    11     5    16   ar
    12     6    16   ar
    13     6    17   ar
    14     7    15   ar
    15     7    19   ar
    16     8    18   ar
    17     8    19   ar
    18     9    18    1
    19     9    31    1
    20     9    32    1
    21    10    11    1
    22    10    12    1
    23    10    20    1
    24    11    21    1
    25    12    13    1
    26    12    22    1
    27    13    14    1
    28    13    23    1
    29    14    24    1
    30    14    25    1
    31    15    17   ar
    32    16    28    1
    33    17    18   ar
    34    19    30    1
