@<TRIPOS>MOLECULE
IMPHY000378
 67 70 0 0 0
SMALL
GASTEIGER

@<TRIPOS>ATOM
      1 O          10.3312   -0.2866    0.0000 O.3     1  UNL1       -0.3093
      2 O           8.5991   -0.2866    0.0000 O.3     1  UNL1       -0.3404
      3 O           9.4651    1.2134    0.0000 O.2     1  UNL1       -0.4707
      4 O           6.0010   -0.7866    0.0000 O.3     1  UNL1       -0.3460
      5 O           5.1350    0.7134    0.0000 O.3     1  UNL1       -0.3405
      6 O          12.4541    3.4687    0.0000 O.3     1  UNL1       -0.3872
      7 O          10.3312   -2.2866    0.0000 O.3     1  UNL1       -0.3841
      8 O           6.8671   -2.2866    0.0000 O.3     1  UNL1       -0.3865
      9 O           8.5991   -3.2866    0.0000 O.3     1  UNL1       -0.3864
     10 O           4.2690   -1.7866    0.0000 O.3     1  UNL1       -0.3841
     11 O           2.5369   -0.7866    0.0000 O.3     1  UNL1       -0.3864
     12 O           2.5369    1.2134    0.0000 O.3     1  UNL1       -0.3865
     13 O          13.4326   -0.2480    0.0000 O.3     1  UNL1       -0.3907
     14 O           3.4030    2.7134    0.0000 O.3     1  UNL1       -0.3924
     15 C          11.1972    1.2134    0.0000 C.3     1  UNL1        0.0539
     16 C          11.1972    2.2134    0.0000 C.3     1  UNL1        0.0221
     17 C          10.3312    0.7134    0.0000 C.3     1  UNL1        0.2106
     18 C          12.1434    2.5182    0.0000 C.3     1  UNL1        0.0807
     19 C          12.1434    0.9087    0.0000 C.2     1  UNL1       -0.0363
     20 C           9.4651   -0.7866    0.0000 C.3     1  UNL1        0.1918
     21 C           7.7331   -0.7866    0.0000 C.3     1  UNL1        0.1134
     22 C           9.4651   -1.7866    0.0000 C.3     1  UNL1        0.1342
     23 C           7.7331   -1.7866    0.0000 C.3     1  UNL1        0.1119
     24 C           8.5991   -2.2866    0.0000 C.3     1  UNL1        0.1141
     25 C          12.7270    1.7134    0.0000 C.2     1  UNL1       -0.0534
     26 C          10.3312    2.7134    0.0000 C.2     1  UNL1       -0.0430
     27 C           6.8671   -0.2866    0.0000 C.3     1  UNL1        0.0796
     28 C           5.1350   -0.2866    0.0000 C.3     1  UNL1        0.1880
     29 C           4.2690   -0.7866    0.0000 C.3     1  UNL1        0.1341
     30 C           3.4030   -0.2866    0.0000 C.3     1  UNL1        0.1141
     31 C          12.4541   -0.0418    0.0000 C.3     1  UNL1        0.0659
     32 C           3.4030    0.7134    0.0000 C.3     1  UNL1        0.1119
     33 C           4.2690    1.2134    0.0000 C.3     1  UNL1        0.1130
     34 C           9.4651    2.2134    0.0000 C.2     1  UNL1        0.0843
     35 C           4.2690    2.2134    0.0000 C.3     1  UNL1        0.0730
     36 H          11.2871    0.3682    0.0000 H       1  UNL1        0.0414
     37 H          11.2871    3.0587    0.0000 H       1  UNL1        0.0380
     38 H           9.7942    0.4034    0.0000 H       1  UNL1        0.1062
     39 H          12.7559    2.6144    0.0000 H       1  UNL1        0.0644
     40 H          10.0021   -1.0966    0.0000 H       1  UNL1        0.0939
     41 H           7.7331   -0.1666    0.0000 H       1  UNL1        0.0647
     42 H           9.4651   -2.4066    0.0000 H       1  UNL1        0.0671
     43 H           7.7331   -2.4066    0.0000 H       1  UNL1        0.0647
     44 H           9.1360   -2.5966    0.0000 H       1  UNL1        0.0648
     45 H          13.3470    1.7134    0.0000 H       1  UNL1        0.0598
     46 H          10.3312    3.3334    0.0000 H       1  UNL1        0.0606
     47 H           7.2656    0.1884    0.0000 H       1  UNL1        0.0587
     48 H           6.4685    0.1884    0.0000 H       1  UNL1        0.0587
     49 H           5.1350   -0.9066    0.0000 H       1  UNL1        0.0937
     50 H           3.7320   -1.0966    0.0000 H       1  UNL1        0.0671
     51 H           2.8660    0.0234    0.0000 H       1  UNL1        0.0648
     52 H           3.4030    1.3334    0.0000 H       1  UNL1        0.0647
     53 H          11.8403   -0.1292    0.0000 H       1  UNL1        0.0604
     54 H          12.4335   -0.6615    0.0000 H       1  UNL1        0.0604
     55 H           4.8059    1.5234    0.0000 H       1  UNL1        0.0647
     56 H           8.9282    2.5234    0.0000 H       1  UNL1        0.1021
     57 H          13.0607    3.5966    0.0000 H       1  UNL1        0.2102
     58 H          10.3312   -2.9066    0.0000 H       1  UNL1        0.2101
     59 H           6.8671   -2.9066    0.0000 H       1  UNL1        0.2100
     60 H           8.0622   -3.5966    0.0000 H       1  UNL1        0.2100
     61 H           4.8796    2.1058    0.0000 H       1  UNL1        0.0584
     62 H           4.4810    2.7961    0.0000 H       1  UNL1        0.0584
     63 H           3.7320   -2.0966    0.0000 H       1  UNL1        0.2101
     64 H           2.0000   -0.4766    0.0000 H       1  UNL1        0.2100
     65 H           2.0000    0.9034    0.0000 H       1  UNL1        0.2100
     66 H          13.6252   -0.8373    0.0000 H       1  UNL1        0.2098
     67 H           3.4030    3.3334    0.0000 H       1  UNL1        0.2095
@<TRIPOS>BOND
     1    17     1    1
     2    20     1    1
     3     2    20    1
     4     2    21    1
     5     3    17    1
     6     3    34    1
     7     4    27    1
     8    28     4    1
     9     5    28    1
    10     5    33    1
    11    18     6    1
    12     6    57    1
    13    22     7    1
    14     7    58    1
    15    23     8    1
    16     8    59    1
    17    24     9    1
    18     9    60    1
    19    29    10    1
    20    10    63    1
    21    30    11    1
    22    11    64    1
    23    32    12    1
    24    12    65    1
    25    13    31    1
    26    13    66    1
    27    14    35    1
    28    14    67    1
    29    15    16    1
    30    15    17    1
    31    15    19    1
    32    15    36    1
    33    16    18    1
    34    16    26    1
    35    16    37    1
    36    17    38    1
    37    18    25    1
    38    18    39    1
    39    19    25    2
    40    19    31    1
    41    20    22    1
    42    20    40    1
    43    21    23    1
    44    21    27    1
    45    21    41    1
    46    22    24    1
    47    22    42    1
    48    23    24    1
    49    23    43    1
    50    24    44    1
    51    25    45    1
    52    26    34    2
    53    26    46    1
    54    27    47    1
    55    27    48    1
    56    28    29    1
    57    28    49    1
    58    29    30    1
    59    29    50    1
    60    30    32    1
    61    30    51    1
    62    31    53    1
    63    31    54    1
    64    32    33    1
    65    32    52    1
    66    33    35    1
    67    33    55    1
    68    34    56    1
    69    35    61    1
    70    35    62    1
