@<TRIPOS>MOLECULE
IMPHY002230
 54 57 0 0 0
SMALL
GASTEIGER

@<TRIPOS>ATOM
      1 O           2.8963    3.3452    0.0000 O.3     1  UNL1       -0.4911
      2 O           5.6405   -3.3232    0.0000 O.3     1  UNL1       -0.4914
      3 O           4.6622    4.3830    0.0000 O.3     1  UNL1       -0.4914
      4 O           3.8372   -4.3830    0.0000 O.3     1  UNL1       -0.4914
      5 N           2.9180    0.3137    0.0000 N.3     1  UNL1       -0.2903
      6 C           3.7841   -0.1863    0.0000 C.3     1  UNL1        0.0429
      7 C           4.6501    0.3137    0.0000 C.3     1  UNL1        0.0015
      8 C           3.8001   -1.2278    0.0000 C.ar    1  UNL1       -0.0228
      9 C           2.9180    1.3137    0.0000 C.3     1  UNL1        0.0285
     10 C           2.0080   -0.1931    0.0000 C.3     1  UNL1        0.0038
     11 C           4.6501    1.3137    0.0000 C.ar    1  UNL1       -0.0346
     12 C           3.7841    1.8137    0.0000 C.ar    1  UNL1        0.0154
     13 C           2.0000   -1.2347    0.0000 C.3     1  UNL1       -0.0144
     14 C           2.9021   -1.7555    0.0000 C.ar    1  UNL1       -0.0378
     15 C           5.5161   -0.1863    0.0000 C.3     1  UNL1       -0.0566
     16 C           4.7520   -1.7484    0.0000 C.ar    1  UNL1       -0.0113
     17 C           5.5601    1.8206    0.0000 C.ar    1  UNL1       -0.0543
     18 C           3.7680    2.8552    0.0000 C.ar    1  UNL1        0.1661
     19 C           2.8937   -2.8405    0.0000 C.ar    1  UNL1       -0.0128
     20 C           4.7688   -2.8333    0.0000 C.ar    1  UNL1        0.1618
     21 C           4.6660    3.3830    0.0000 C.ar    1  UNL1        0.1618
     22 C           3.8334   -3.3830    0.0000 C.ar    1  UNL1        0.1618
     23 C           5.5681    2.8622    0.0000 C.ar    1  UNL1       -0.0160
     24 C           2.8847    4.3451    0.0000 C.3     1  UNL1        0.0790
     25 C           5.6521   -4.3232    0.0000 C.3     1  UNL1        0.0790
     26 C           5.5263    4.8863    0.0000 C.3     1  UNL1        0.0790
     27 C           2.9731   -4.8863    0.0000 C.3     1  UNL1        0.0790
     28 H           4.5234   -0.6056    0.0000 H       1  UNL1        0.0518
     29 H           5.1870    0.6237    0.0000 H       1  UNL1        0.0365
     30 H           2.7060    1.8963    0.0000 H       1  UNL1        0.0477
     31 H           2.3074    1.2061    0.0000 H       1  UNL1        0.0477
     32 H           1.8035    0.3922    0.0000 H       1  UNL1        0.0430
     33 H           1.3964   -0.2945    0.0000 H       1  UNL1        0.0430
     34 H           1.3900   -1.1239    0.0000 H       1  UNL1        0.0326
     35 H           1.7864   -1.8168    0.0000 H       1  UNL1        0.0326
     36 H           5.2061   -0.7232    0.0000 H       1  UNL1        0.0236
     37 H           6.0530   -0.4963    0.0000 H       1  UNL1        0.0236
     38 H           5.8261    0.3507    0.0000 H       1  UNL1        0.0236
     39 H           5.2829   -1.4281    0.0000 H       1  UNL1        0.0659
     40 H           6.0934    1.5044    0.0000 H       1  UNL1        0.0622
     41 H           2.3556   -3.1484    0.0000 H       1  UNL1        0.0658
     42 H           6.1062    3.1701    0.0000 H       1  UNL1        0.0655
     43 H           3.5046    4.3523    0.0000 H       1  UNL1        0.0660
     44 H           2.8775    4.9651    0.0000 H       1  UNL1        0.0660
     45 H           2.2647    4.3380    0.0000 H       1  UNL1        0.0660
     46 H           5.0321   -4.3303    0.0000 H       1  UNL1        0.0660
     47 H           5.6592   -4.9431    0.0000 H       1  UNL1        0.0660
     48 H           6.2720   -4.3160    0.0000 H       1  UNL1        0.0660
     49 H           5.8383    4.3506    0.0000 H       1  UNL1        0.0660
     50 H           6.0620    5.1984    0.0000 H       1  UNL1        0.0660
     51 H           5.2142    5.4220    0.0000 H       1  UNL1        0.0660
     52 H           2.6610   -4.3506    0.0000 H       1  UNL1        0.0660
     53 H           2.4374   -5.1984    0.0000 H       1  UNL1        0.0660
     54 H           3.2852   -5.4221    0.0000 H       1  UNL1        0.0660
@<TRIPOS>BOND
     1     1    18    1
     2     1    24    1
     3     2    20    1
     4     2    25    1
     5     3    21    1
     6     3    26    1
     7     4    22    1
     8     4    27    1
     9     5     6    1
    10     5     9    1
    11     5    10    1
    12     6     7    1
    13     6     8    1
    14     6    28    1
    15     7    11    1
    16     7    15    1
    17     7    29    1
    18     8    14   ar
    19     8    16   ar
    20     9    12    1
    21     9    30    1
    22     9    31    1
    23    10    13    1
    24    10    32    1
    25    10    33    1
    26    11    12   ar
    27    11    17   ar
    28    12    18   ar
    29    13    14    1
    30    13    34    1
    31    13    35    1
    32    14    19   ar
    33    15    36    1
    34    15    37    1
    35    15    38    1
    36    16    20   ar
    37    16    39    1
    38    17    23   ar
    39    17    40    1
    40    18    21   ar
    41    19    22   ar
    42    19    41    1
    43    20    22   ar
    44    21    23   ar
    45    23    42    1
    46    24    43    1
    47    24    44    1
    48    24    45    1
    49    25    46    1
    50    25    47    1
    51    25    48    1
    52    26    49    1
    53    26    50    1
    54    26    51    1
    55    27    52    1
    56    27    53    1
    57    27    54    1
