@<TRIPOS>MOLECULE
IMPHY010055
 76 81 0 0 0
SMALL
GASTEIGER

@<TRIPOS>ATOM
      1 O           3.6035   -0.7929    0.0000 O.3     1  UNL1       -0.3851
      2 O           5.1210   -1.9617    0.0000 O.3     1  UNL1       -0.3790
      3 O           6.9437    1.8001    0.0000 O.3     1  UNL1       -0.3791
      4 O           4.8185    3.1120    0.0000 O.3     1  UNL1       -0.3833
      5 O           3.2269    1.3743    0.0000 O.3     1  UNL1       -0.3885
      6 O           2.8144   -0.3516    0.0000 O.3     1  UNL1       -0.3862
      7 O           2.8260    2.2581    0.0000 O.3     1  UNL1       -0.3742
      8 O           8.6946   -0.4700    0.0000 O.3     1  UNL1       -0.3910
      9 O           7.8097   -2.4350    0.0000 O.3     1  UNL1       -0.3823
     10 N           8.1390   -0.0289    0.0000 N.3     1  UNL1       -0.2979
     11 C           6.1924    0.3663    0.0000 C.3     1  UNL1        0.0222
     12 C           6.1924   -0.5013    0.0000 C.3     1  UNL1        0.0067
     13 C           5.5141    0.9073    0.0000 C.3     1  UNL1       -0.0205
     14 C           7.1944    0.2603    0.0000 C.3     1  UNL1        0.0269
     15 C           4.6682   -0.8491    0.0000 C.3     1  UNL1        0.0334
     16 C           4.6682    0.7142    0.0000 C.3     1  UNL1        0.0231
     17 C           4.2918   -0.0675    0.0000 C.3     1  UNL1        0.1064
     18 C           5.5141   -1.0422    0.0000 C.3     1  UNL1        0.0694
     19 C           6.9437   -0.9350    0.0000 C.3     1  UNL1        0.0386
     20 C           6.9437    0.8001    0.0000 C.3     1  UNL1        0.0683
     21 C           5.5918    1.7713    0.0000 C.3     1  UNL1       -0.0151
     22 C           4.7941    2.1123    0.0000 C.3     1  UNL1        0.1208
     23 C           4.2233    1.4590    0.0000 C.3     1  UNL1        0.0922
     24 C           3.6469    0.2025    0.0000 C.3     1  UNL1        0.1134
     25 C           8.1390   -0.7808    0.0000 C.3     1  UNL1        0.0097
     26 C           7.6951   -0.5013    0.0000 C.3     1  UNL1        0.0668
     27 C           3.6469    1.6870    0.0000 C.3     1  UNL1        0.1178
     28 C           7.6951    0.3663    0.0000 C.3     1  UNL1        0.0008
     29 C           6.9437   -1.9350    0.0000 C.3     1  UNL1        0.0568
     30 C           8.9430    0.5658    0.0000 C.3     1  UNL1       -0.0036
     31 C           5.7209   -2.7618    0.0000 C.3     1  UNL1        0.0368
     32 C           9.8600    0.1669    0.0000 C.3     1  UNL1       -0.0523
     33 C           7.8098    2.3001    0.0000 C.3     1  UNL1        0.0368
     34 C           2.9102    3.2545    0.0000 C.3     1  UNL1        0.0370
     35 C           7.8097   -3.4350    0.0000 C.3     1  UNL1        0.0365
     36 H           6.2559   -1.3489    0.0000 H       1  UNL1        0.0340
     37 H           6.2957    1.2413    0.0000 H       1  UNL1        0.0313
     38 H           7.3183    0.8678    0.0000 H       1  UNL1        0.0473
     39 H           4.1383   -1.5137    0.0000 H       1  UNL1        0.0370
     40 H           3.8191    0.6761    0.0000 H       1  UNL1        0.0358
     41 H           5.7145   -1.6289    0.0000 H       1  UNL1        0.0603
     42 H           6.4068    1.1101    0.0000 H       1  UNL1        0.0603
     43 H           5.7746    2.3638    0.0000 H       1  UNL1        0.0298
     44 H           6.2002    1.6515    0.0000 H       1  UNL1        0.0298
     45 H           3.9432    2.0121    0.0000 H       1  UNL1        0.0627
     46 H           3.1004    0.4952    0.0000 H       1  UNL1        0.0649
     47 H           8.7585   -0.7543    0.0000 H       1  UNL1        0.0434
     48 H           8.1920   -1.3985    0.0000 H       1  UNL1        0.0434
     49 H           7.8648   -1.0976    0.0000 H       1  UNL1        0.0601
     50 H           3.7251    2.3020    0.0000 H       1  UNL1        0.0652
     51 H           7.9071    0.9489    0.0000 H       1  UNL1        0.0315
     52 H           8.3056    0.2587    0.0000 H       1  UNL1        0.0315
     53 H           6.7317   -2.5176    0.0000 H       1  UNL1        0.0566
     54 H           6.3331   -1.8274    0.0000 H       1  UNL1        0.0566
     55 H           3.4587   -1.3957    0.0000 H       1  UNL1        0.2103
     56 H           8.4934    0.9926    0.0000 H       1  UNL1        0.0424
     57 H           9.2853    1.0827    0.0000 H       1  UNL1        0.0424
     58 H           4.2893    3.4350    0.0000 H       1  UNL1        0.2104
     59 H           2.9634    0.8130    0.0000 H       1  UNL1        0.2099
     60 H           2.2589   -0.0763    0.0000 H       1  UNL1        0.2100
     61 H           9.0212   -0.9970    0.0000 H       1  UNL1        0.2098
     62 H           6.2170   -2.3899    0.0000 H       1  UNL1        0.0524
     63 H           6.0928   -3.2579    0.0000 H       1  UNL1        0.0524
     64 H           5.2248   -3.1337    0.0000 H       1  UNL1        0.0524
     65 H          10.1073    0.7354    0.0000 H       1  UNL1        0.0242
     66 H          10.4285   -0.0805    0.0000 H       1  UNL1        0.0242
     67 H           9.6127   -0.4017    0.0000 H       1  UNL1        0.0242
     68 H           7.4998    2.8370    0.0000 H       1  UNL1        0.0524
     69 H           8.3467    2.6101    0.0000 H       1  UNL1        0.0524
     70 H           8.1198    1.7632    0.0000 H       1  UNL1        0.0524
     71 H           2.2924    3.3067    0.0000 H       1  UNL1        0.0524
     72 H           2.9624    3.8723    0.0000 H       1  UNL1        0.0524
     73 H           3.5280    3.2024    0.0000 H       1  UNL1        0.0524
     74 H           8.4297   -3.4350    0.0000 H       1  UNL1        0.0523
     75 H           7.8097   -4.0550    0.0000 H       1  UNL1        0.0523
     76 H           7.1897   -3.4350    0.0000 H       1  UNL1        0.0523
@<TRIPOS>BOND
     1    17     1    1
     2     1    55    1
     3    18     2    1
     4     2    31    1
     5    20     3    1
     6     3    33    1
     7    22     4    1
     8     4    58    1
     9    23     5    1
    10     5    59    1
    11    24     6    1
    12     6    60    1
    13    27     7    1
    14     7    34    1
    15    26     8    1
    16     8    61    1
    17     9    29    1
    18     9    35    1
    19    10    14    1
    20    10    25    1
    21    10    30    1
    22    11    12    1
    23    11    13    1
    24    11    14    1
    25    11    20    1
    26    12    18    1
    27    12    19    1
    28    12    36    1
    29    13    16    1
    30    13    21    1
    31    13    37    1
    32    14    15    1
    33    14    38    1
    34    15    17    1
    35    15    18    1
    36    15    39    1
    37    16    17    1
    38    16    23    1
    39    16    40    1
    40    17    24    1
    41    18    41    1
    42    19    25    1
    43    19    26    1
    44    19    29    1
    45    20    28    1
    46    20    42    1
    47    21    22    1
    48    21    43    1
    49    21    44    1
    50    22    23    1
    51    22    27    1
    52    23    45    1
    53    24    27    1
    54    24    46    1
    55    25    47    1
    56    25    48    1
    57    26    28    1
    58    26    49    1
    59    27    50    1
    60    28    51    1
    61    28    52    1
    62    29    53    1
    63    29    54    1
    64    30    32    1
    65    30    56    1
    66    30    57    1
    67    31    62    1
    68    31    63    1
    69    31    64    1
    70    32    65    1
    71    32    66    1
    72    32    67    1
    73    33    68    1
    74    33    69    1
    75    33    70    1
    76    34    71    1
    77    34    72    1
    78    34    73    1
    79    35    74    1
    80    35    75    1
    81    35    76    1
