@<TRIPOS>MOLECULE
IMPHY011366
 38 40 0 0 0
SMALL
GASTEIGER

@<TRIPOS>ATOM
      1 O           5.5301   -0.0427    0.0000 O.3     1  UNL1       -0.4825
      2 O           8.1282    2.4573    0.0000 O.3     1  UNL1       -0.3865
      3 O           5.5301    1.9573    0.0000 O.3     1  UNL1       -0.3856
      4 O           7.3424   -1.2379    0.0000 O.2     1  UNL1       -0.4591
      5 O           3.7702   -1.0080    0.0000 O.2     1  UNL1       -0.4183
      6 O           2.0000   -1.0185    0.0000 O.2     1  UNL1       -0.2452
      7 C           7.2622    1.9573    0.0000 C.3     1  UNL1        0.0894
      8 C           6.3961    1.4573    0.0000 C.3     1  UNL1        0.1171
      9 C           6.3961    0.4573    0.0000 C.3     1  UNL1        0.1184
     10 C           6.7622    2.8234    0.0000 C.3     1  UNL1       -0.0338
     11 C           7.7622    1.0913    0.0000 C.3     1  UNL1       -0.0338
     12 C           5.5301   -1.0427    0.0000 C.ar    1  UNL1        0.2064
     13 C           6.3961   -1.5427    0.0000 C.ar    1  UNL1        0.1799
     14 C           4.6641   -1.5427    0.0000 C.ar    1  UNL1        0.1842
     15 C           6.3961   -2.5427    0.0000 C.ar    1  UNL1        0.0246
     16 C           4.6641   -2.5427    0.0000 C.ar    1  UNL1        0.0221
     17 C           5.5301   -3.0427    0.0000 C.ar    1  UNL1       -0.0401
     18 C           7.3424   -2.8474    0.0000 C.ar    1  UNL1       -0.0160
     19 C           3.7702   -3.0773    0.0000 C.ar    1  UNL1       -0.0442
     20 C           7.9260   -2.0427    0.0000 C.ar    1  UNL1        0.0933
     21 C           2.8641   -2.5635    0.0000 C.ar    1  UNL1        0.0236
     22 C           2.8641   -1.5218    0.0000 C.ar    1  UNL1        0.3373
     23 H           5.8592    1.1473    0.0000 H       1  UNL1        0.0656
     24 H           6.6082   -0.1253    0.0000 H       1  UNL1        0.0724
     25 H           7.0067    0.5650    0.0000 H       1  UNL1        0.0724
     26 H           7.2252    0.7813    0.0000 H       1  UNL1        0.0258
     27 H           8.0722    0.5544    0.0000 H       1  UNL1        0.0258
     28 H           7.2991    3.1334    0.0000 H       1  UNL1        0.0258
     29 H           6.4522    3.3603    0.0000 H       1  UNL1        0.0258
     30 H           6.2252    2.5134    0.0000 H       1  UNL1        0.0258
     31 H           8.2991    1.4013    0.0000 H       1  UNL1        0.0258
     32 H           8.1282    3.0773    0.0000 H       1  UNL1        0.2102
     33 H           5.5301    2.5773    0.0000 H       1  UNL1        0.2100
     34 H           5.5301   -3.6627    0.0000 H       1  UNL1        0.0632
     35 H           7.5350   -3.4367    0.0000 H       1  UNL1        0.0655
     36 H           3.7773   -3.6973    0.0000 H       1  UNL1        0.0627
     37 H           8.5460   -2.0427    0.0000 H       1  UNL1        0.1030
     38 H           2.3284   -2.8756    0.0000 H       1  UNL1        0.0689
@<TRIPOS>BOND
     1     1     9    1
     2     1    12    1
     3     2     7    1
     4     2    32    1
     5     8     3    1
     6     3    33    1
     7     4    13   ar
     8     4    20   ar
     9     5    14   ar
    10     5    22   ar
    11     6    22    2
    12     7     8    1
    13     7    10    1
    14     7    11    1
    15     8     9    1
    16     8    23    1
    17     9    24    1
    18     9    25    1
    19    10    28    1
    20    10    29    1
    21    10    30    1
    22    11    26    1
    23    11    27    1
    24    11    31    1
    25    12    13   ar
    26    12    14   ar
    27    13    15   ar
    28    14    16   ar
    29    15    17   ar
    30    15    18   ar
    31    16    17   ar
    32    16    19   ar
    33    17    34    1
    34    18    20   ar
    35    18    35    1
    36    19    21   ar
    37    19    36    1
    38    20    37    1
    39    21    22   ar
    40    21    38    1
