@<TRIPOS>MOLECULE
IMPHY013016
 46 48 0 0 0
SMALL
GASTEIGER

@<TRIPOS>ATOM
      1 O           3.8000   -0.2327    0.0000 O.3     1  UNL1       -0.3872
      2 N           8.1301    2.2673    0.0000 N.3     1  UNL1       -0.3154
      3 N           4.6660   -3.7327    0.0000 N.ar    1  UNL1       -0.2550
      4 C           6.3981    1.2673    0.0000 C.3     1  UNL1       -0.0324
      5 C           6.3981    2.2673    0.0000 C.3     1  UNL1       -0.0078
      6 C           7.2641    0.7673    0.0000 C.3     1  UNL1       -0.0370
      7 C           5.5321    0.7673    0.0000 C.3     1  UNL1       -0.0469
      8 C           7.2641    2.7673    0.0000 C.3     1  UNL1        0.0024
      9 C           8.1301    1.2673    0.0000 C.3     1  UNL1       -0.0038
     10 C           5.5321   -0.2327    0.0000 C.3     1  UNL1       -0.0224
     11 C           5.5321    2.7673    0.0000 C.2     1  UNL1       -0.0865
     12 C           4.6660   -0.7327    0.0000 C.3     1  UNL1        0.0808
     13 C           4.6660   -1.7327    0.0000 C.ar    1  UNL1       -0.0086
     14 C           5.5321    3.7673    0.0000 C.2     1  UNL1       -0.1023
     15 C           3.8000   -2.2327    0.0000 C.ar    1  UNL1        0.0060
     16 C           5.5321   -2.2327    0.0000 C.ar    1  UNL1       -0.0374
     17 C           3.8000   -3.2327    0.0000 C.ar    1  UNL1        0.0713
     18 C           2.9061   -1.6980    0.0000 C.ar    1  UNL1       -0.0522
     19 C           5.5321   -3.2327    0.0000 C.ar    1  UNL1        0.0286
     20 C           2.9061   -3.7673    0.0000 C.ar    1  UNL1       -0.0357
     21 C           2.0000   -2.2118    0.0000 C.ar    1  UNL1       -0.0611
     22 C           2.0000   -3.2535    0.0000 C.ar    1  UNL1       -0.0597
     23 H           6.3981    0.6473    0.0000 H       1  UNL1        0.0307
     24 H           6.3981    2.8873    0.0000 H       1  UNL1        0.0358
     25 H           6.8656    0.2924    0.0000 H       1  UNL1        0.0280
     26 H           7.6626    0.2924    0.0000 H       1  UNL1        0.0280
     27 H           5.3200    1.3499    0.0000 H       1  UNL1        0.0269
     28 H           4.9215    0.6597    0.0000 H       1  UNL1        0.0269
     29 H           7.6626    3.2423    0.0000 H       1  UNL1        0.0430
     30 H           6.8656    3.2423    0.0000 H       1  UNL1        0.0430
     31 H           8.3422    0.6847    0.0000 H       1  UNL1        0.0424
     32 H           8.7407    1.3750    0.0000 H       1  UNL1        0.0424
     33 H           5.7441   -0.8153    0.0000 H       1  UNL1        0.0293
     34 H           6.1426   -0.1250    0.0000 H       1  UNL1        0.0293
     35 H           8.6671    2.5773    0.0000 H       1  UNL1        0.1220
     36 H           4.9951    2.4573    0.0000 H       1  UNL1        0.0570
     37 H           4.6660   -0.1127    0.0000 H       1  UNL1        0.0644
     38 H           6.0690    4.0773    0.0000 H       1  UNL1        0.0532
     39 H           4.9951    4.0773    0.0000 H       1  UNL1        0.0532
     40 H           3.8000    0.3873    0.0000 H       1  UNL1        0.2102
     41 H           6.0690   -1.9227    0.0000 H       1  UNL1        0.0636
     42 H           2.9132   -1.0780    0.0000 H       1  UNL1        0.0624
     43 H           6.0690   -3.5427    0.0000 H       1  UNL1        0.0830
     44 H           2.9132   -4.3873    0.0000 H       1  UNL1        0.0639
     45 H           1.4643   -1.8998    0.0000 H       1  UNL1        0.0618
     46 H           1.4643   -3.5656    0.0000 H       1  UNL1        0.0618
@<TRIPOS>BOND
     1    12     1    1
     2     1    40    1
     3     2     8    1
     4     2     9    1
     5     2    35    1
     6     3    17   ar
     7     3    19   ar
     8     4     5    1
     9     4     6    1
    10     4     7    1
    11     4    23    1
    12     5     8    1
    13     5    11    1
    14     5    24    1
    15     6     9    1
    16     6    25    1
    17     6    26    1
    18     7    10    1
    19     7    27    1
    20     7    28    1
    21     8    29    1
    22     8    30    1
    23     9    31    1
    24     9    32    1
    25    10    12    1
    26    10    33    1
    27    10    34    1
    28    11    14    2
    29    11    36    1
    30    12    13    1
    31    12    37    1
    32    13    15   ar
    33    13    16   ar
    34    14    38    1
    35    14    39    1
    36    15    17   ar
    37    15    18   ar
    38    16    19   ar
    39    16    41    1
    40    17    20   ar
    41    18    21   ar
    42    18    42    1
    43    19    43    1
    44    20    22   ar
    45    20    44    1
    46    21    22   ar
    47    21    45    1
    48    22    46    1
