@<TRIPOS>MOLECULE
IMPHY012307
 27 27 0 0 0
SMALL
GASTEIGER

@<TRIPOS>ATOM
      1 O           5.3692    1.5194    0.0000 O.2     1  UNL1       -0.3007
      2 C           4.5032    0.0194    0.0000 C.3     1  UNL1        0.0235
      3 C           5.3122   -0.5684    0.0000 C.3     1  UNL1       -0.0341
      4 C           3.6942   -0.5684    0.0000 C.3     1  UNL1       -0.0109
      5 C           5.0032   -1.5194    0.0000 C.3     1  UNL1       -0.0493
      6 C           4.0032   -1.5194    0.0000 C.3     1  UNL1       -0.0456
      7 C           6.2633   -0.2593    0.0000 C.3     1  UNL1       -0.0618
      8 C           2.7431   -0.2593    0.0000 C.2     1  UNL1       -0.0759
      9 C           4.5032    1.0194    0.0000 C.2     1  UNL1        0.1242
     10 C           2.0000   -0.9285    0.0000 C.3     1  UNL1       -0.0438
     11 C           2.5352    0.7188    0.0000 C.2     1  UNL1       -0.0994
     12 H           3.9508    0.3009    0.0000 H       1  UNL1        0.0383
     13 H           5.7506   -1.0068    0.0000 H       1  UNL1        0.0305
     14 H           3.2558   -1.0068    0.0000 H       1  UNL1        0.0352
     15 H           4.9384   -2.1360    0.0000 H       1  UNL1        0.0268
     16 H           5.6097   -1.6483    0.0000 H       1  UNL1        0.0268
     17 H           3.3968   -1.6483    0.0000 H       1  UNL1        0.0271
     18 H           4.0680   -2.1360    0.0000 H       1  UNL1        0.0271
     19 H           6.4549   -0.8490    0.0000 H       1  UNL1        0.0233
     20 H           6.8530   -0.0678    0.0000 H       1  UNL1        0.0233
     21 H           6.0717    0.3303    0.0000 H       1  UNL1        0.0233
     22 H           3.9663    1.3294    0.0000 H       1  UNL1        0.1029
     23 H           1.5851   -0.4677    0.0000 H       1  UNL1        0.0274
     24 H           1.5392   -1.3433    0.0000 H       1  UNL1        0.0274
     25 H           2.4149   -1.3892    0.0000 H       1  UNL1        0.0274
     26 H           2.9960    1.1337    0.0000 H       1  UNL1        0.0534
     27 H           1.9456    0.9104    0.0000 H       1  UNL1        0.0534
@<TRIPOS>BOND
     1     1     9    2
     2     2     3    1
     3     2     4    1
     4     2     9    1
     5     2    12    1
     6     3     5    1
     7     3     7    1
     8     3    13    1
     9     4     6    1
    10     4     8    1
    11     4    14    1
    12     5     6    1
    13     5    15    1
    14     5    16    1
    15     6    17    1
    16     6    18    1
    17     7    19    1
    18     7    20    1
    19     7    21    1
    20     8    10    1
    21     8    11    2
    22     9    22    1
    23    10    23    1
    24    10    24    1
    25    10    25    1
    26    11    26    1
    27    11    27    1
