@<TRIPOS>MOLECULE
IMPHY009702
 31 31 0 0 0
SMALL
GASTEIGER

@<TRIPOS>ATOM
      1 O           2.8660    3.0000    0.0000 O.2     1  UNL1       -0.2930
      2 C           2.8660    0.0000    0.0000 C.3     1  UNL1       -0.0160
      3 C           2.0000   -0.5000    0.0000 C.3     1  UNL1       -0.0425
      4 C           3.7320   -0.5000    0.0000 C.3     1  UNL1       -0.0280
      5 C           2.0000   -1.5000    0.0000 C.3     1  UNL1       -0.0315
      6 C           2.8660   -2.0000    0.0000 C.2     1  UNL1       -0.0765
      7 C           2.8660    1.0000    0.0000 C.2     1  UNL1       -0.0660
      8 C           3.7320   -1.5000    0.0000 C.2     1  UNL1       -0.0845
      9 C           2.8660   -3.0000    0.0000 C.3     1  UNL1       -0.0438
     10 C           2.0000    1.5000    0.0000 C.3     1  UNL1       -0.0431
     11 C           3.7320    1.5000    0.0000 C.2     1  UNL1       -0.0202
     12 C           3.7320    2.5000    0.0000 C.2     1  UNL1        0.1530
     13 C           4.5981    3.0000    0.0000 C.3     1  UNL1       -0.0020
     14 H           3.4030    0.3100    0.0000 H       1  UNL1        0.0349
     15 H           1.7880    0.0826    0.0000 H       1  UNL1        0.0274
     16 H           1.3894   -0.6077    0.0000 H       1  UNL1        0.0274
     17 H           4.3426   -0.6077    0.0000 H       1  UNL1        0.0313
     18 H           3.9441    0.0826    0.0000 H       1  UNL1        0.0313
     19 H           1.3894   -1.3923    0.0000 H       1  UNL1        0.0310
     20 H           1.7880   -2.0826    0.0000 H       1  UNL1        0.0310
     21 H           4.2690   -1.8100    0.0000 H       1  UNL1        0.0572
     22 H           2.2460   -3.0000    0.0000 H       1  UNL1        0.0274
     23 H           2.8660   -3.6200    0.0000 H       1  UNL1        0.0274
     24 H           3.4860   -3.0000    0.0000 H       1  UNL1        0.0274
     25 H           2.3100    2.0369    0.0000 H       1  UNL1        0.0275
     26 H           1.4631    1.8100    0.0000 H       1  UNL1        0.0275
     27 H           1.6900    0.9631    0.0000 H       1  UNL1        0.0275
     28 H           4.2690    1.1900    0.0000 H       1  UNL1        0.0652
     29 H           4.9081    2.4631    0.0000 H       1  UNL1        0.0309
     30 H           5.1350    3.3100    0.0000 H       1  UNL1        0.0309
     31 H           4.2881    3.5369    0.0000 H       1  UNL1        0.0309
@<TRIPOS>BOND
     1     1    12    2
     2     2     3    1
     3     2     4    1
     4     2     7    1
     5     2    14    1
     6     3     5    1
     7     3    15    1
     8     3    16    1
     9     4     8    1
    10     4    17    1
    11     4    18    1
    12     5     6    1
    13     5    19    1
    14     5    20    1
    15     6     8    2
    16     6     9    1
    17     7    10    1
    18     7    11    2
    19     8    21    1
    20     9    22    1
    21     9    23    1
    22     9    24    1
    23    10    25    1
    24    10    26    1
    25    10    27    1
    26    11    12    1
    27    11    28    1
    28    12    13    1
    29    13    29    1
    30    13    30    1
    31    13    31    1
