@<TRIPOS>MOLECULE
IMPHY012664
 22 21 0 0 0
SMALL
GASTEIGER

@<TRIPOS>ATOM
      1 O           5.1350   -1.0000    0.0000 O.2     1  UNL1       -0.4910
      2 O           6.0010    1.5000    0.0000 O.2     1  UNL1       -0.2838
      3 O           2.5369    0.5000    0.0000 O.3     1  UNL1       -0.4774
      4 O           3.4030   -1.0000    0.0000 O.2     1  UNL1       -0.2457
      5 C           6.8671    0.0000    0.0000 C.2     1  UNL1       -0.0072
      6 C           5.1350    0.0000    0.0000 C.2     1  UNL1        0.1735
      7 C           6.0010    0.5000    0.0000 C.2     1  UNL1        0.2228
      8 C           7.7331    0.5000    0.0000 C.3     1  UNL1       -0.0365
      9 C           4.2690    0.5000    0.0000 C.2     1  UNL1        0.0678
     10 C           6.8671   -1.0000    0.0000 C.2     1  UNL1       -0.0920
     11 C           4.2690   -1.5000    0.0000 C.3     1  UNL1        0.0790
     12 C           3.4030   -0.0000    0.0000 C.2     1  UNL1        0.3332
     13 H           8.0431   -0.0369    0.0000 H       1  UNL1        0.0279
     14 H           8.2700    0.8100    0.0000 H       1  UNL1        0.0279
     15 H           7.4231    1.0369    0.0000 H       1  UNL1        0.0279
     16 H           4.2690    1.1200    0.0000 H       1  UNL1        0.0727
     17 H           6.3301   -1.3100    0.0000 H       1  UNL1        0.0539
     18 H           7.4040   -1.3100    0.0000 H       1  UNL1        0.0539
     19 H           3.9590   -0.9631    0.0000 H       1  UNL1        0.0660
     20 H           3.7320   -1.8100    0.0000 H       1  UNL1        0.0660
     21 H           4.5790   -2.0369    0.0000 H       1  UNL1        0.0660
     22 H           2.0000    0.1900    0.0000 H       1  UNL1        0.2954
@<TRIPOS>BOND
     1     1     6    1
     2     1    11    1
     3     2     7    2
     4     3    12    1
     5     3    22    1
     6     4    12    2
     7     5     7    1
     8     5     8    1
     9     5    10    2
    10     6     7    1
    11     6     9    2
    12     8    13    1
    13     8    14    1
    14     8    15    1
    15     9    12    1
    16     9    16    1
    17    10    17    1
    18    10    18    1
    19    11    19    1
    20    11    20    1
    21    11    21    1
