@<TRIPOS>MOLECULE
IMPHY007566
 61 63 0 0 0
SMALL
GASTEIGER

@<TRIPOS>ATOM
      1 O           9.4651   -0.5950    0.0000 O.3     1  UNL1       -0.3302
      2 O           7.7331   -2.5950    0.0000 O.3     1  UNL1       -0.3864
      3 O           9.4651   -3.5950    0.0000 O.3     1  UNL1       -0.3864
      4 O          11.1972   -0.5950    0.0000 O.3     1  UNL1       -0.4570
      5 O          11.1972   -2.5950    0.0000 O.3     1  UNL1       -0.3829
      6 O           6.8671   -1.0950    0.0000 O.3     1  UNL1       -0.4585
      7 O          12.9292    0.4050    0.0000 O.3     1  UNL1       -0.5009
      8 O          12.9292    2.4050    0.0000 O.3     1  UNL1       -0.4913
      9 O           6.0010    0.4050    0.0000 O.2     1  UNL1       -0.2450
     10 O           4.2690   -3.5950    0.0000 O.3     1  UNL1       -0.5032
     11 O           2.5369   -0.5950    0.0000 O.3     1  UNL1       -0.5032
     12 O           2.5369   -2.5950    0.0000 O.3     1  UNL1       -0.5009
     13 C           8.5991   -2.0950    0.0000 C.3     1  UNL1        0.1130
     14 C           9.4651   -2.5950    0.0000 C.3     1  UNL1        0.1152
     15 C           8.5991   -1.0950    0.0000 C.3     1  UNL1        0.1250
     16 C          10.3312   -2.0950    0.0000 C.3     1  UNL1        0.1454
     17 C          10.3312   -1.0950    0.0000 C.3     1  UNL1        0.2310
     18 C           7.7331   -0.5950    0.0000 C.3     1  UNL1        0.1215
     19 C          11.1972    0.4050    0.0000 C.ar    1  UNL1        0.1691
     20 C          10.3312    0.9050    0.0000 C.ar    1  UNL1       -0.0125
     21 C          12.0632    0.9050    0.0000 C.ar    1  UNL1        0.2012
     22 C           6.0010   -0.5950    0.0000 C.2     1  UNL1        0.3395
     23 C          10.3312    1.9050    0.0000 C.ar    1  UNL1       -0.0365
     24 C          12.0632    1.9050    0.0000 C.ar    1  UNL1        0.1652
     25 C          11.1972    2.4050    0.0000 C.ar    1  UNL1       -0.0126
     26 C           5.1350   -1.0950    0.0000 C.ar    1  UNL1        0.0661
     27 C           9.4651    2.4050    0.0000 C.3     1  UNL1       -0.0095
     28 C           4.2690   -0.5950    0.0000 C.ar    1  UNL1       -0.0023
     29 C           5.1350   -2.0950    0.0000 C.ar    1  UNL1       -0.0023
     30 C           9.4651    3.4050    0.0000 C.2     1  UNL1       -0.0868
     31 C           4.2690   -2.5950    0.0000 C.ar    1  UNL1        0.1628
     32 C           3.4030   -1.0950    0.0000 C.ar    1  UNL1        0.1628
     33 C           3.4030   -2.0950    0.0000 C.ar    1  UNL1        0.2006
     34 C          12.9292    3.4050    0.0000 C.3     1  UNL1        0.0790
     35 C           8.5991    3.9050    0.0000 C.2     1  UNL1       -0.1023
     36 H           8.5991   -2.7150    0.0000 H       1  UNL1        0.0647
     37 H          10.0021   -2.9050    0.0000 H       1  UNL1        0.0648
     38 H           8.5991   -0.4750    0.0000 H       1  UNL1        0.0658
     39 H          10.8681   -1.7850    0.0000 H       1  UNL1        0.0683
     40 H          10.3312   -0.4750    0.0000 H       1  UNL1        0.1084
     41 H           8.1316   -0.1201    0.0000 H       1  UNL1        0.0725
     42 H           7.3346   -0.1201    0.0000 H       1  UNL1        0.0725
     43 H           7.7331   -3.2150    0.0000 H       1  UNL1        0.2100
     44 H           8.9282   -3.9050    0.0000 H       1  UNL1        0.2100
     45 H          11.1972   -3.2150    0.0000 H       1  UNL1        0.2102
     46 H           9.7942    0.5950    0.0000 H       1  UNL1        0.0658
     47 H          11.1972    3.0250    0.0000 H       1  UNL1        0.0658
     48 H           8.8546    2.5127    0.0000 H       1  UNL1        0.0355
     49 H           9.2531    1.8224    0.0000 H       1  UNL1        0.0355
     50 H          13.4662    0.7150    0.0000 H       1  UNL1        0.2924
     51 H           4.2690    0.0250    0.0000 H       1  UNL1        0.0663
     52 H           5.6720   -2.4050    0.0000 H       1  UNL1        0.0663
     53 H          10.0021    3.7150    0.0000 H       1  UNL1        0.0570
     54 H          13.5492    3.4050    0.0000 H       1  UNL1        0.0660
     55 H          12.9292    4.0250    0.0000 H       1  UNL1        0.0660
     56 H          12.3092    3.4050    0.0000 H       1  UNL1        0.0660
     57 H           8.5991    4.5250    0.0000 H       1  UNL1        0.0532
     58 H           8.0622    3.5950    0.0000 H       1  UNL1        0.0532
     59 H           3.7320   -3.9050    0.0000 H       1  UNL1        0.2923
     60 H           2.5369    0.0250    0.0000 H       1  UNL1        0.2923
     61 H           2.0000   -2.2850    0.0000 H       1  UNL1        0.2924
@<TRIPOS>BOND
     1     1    15    1
     2     1    17    1
     3    13     2    1
     4     2    43    1
     5    14     3    1
     6     3    44    1
     7    17     4    1
     8     4    19    1
     9    16     5    1
    10     5    45    1
    11     6    18    1
    12     6    22    1
    13     7    21    1
    14     7    50    1
    15     8    24    1
    16     8    34    1
    17     9    22    2
    18    10    31    1
    19    10    59    1
    20    11    32    1
    21    11    60    1
    22    12    33    1
    23    12    61    1
    24    13    14    1
    25    13    15    1
    26    13    36    1
    27    14    16    1
    28    14    37    1
    29    15    18    1
    30    15    38    1
    31    16    17    1
    32    16    39    1
    33    17    40    1
    34    18    41    1
    35    18    42    1
    36    19    20   ar
    37    19    21   ar
    38    20    23   ar
    39    20    46    1
    40    21    24   ar
    41    22    26    1
    42    23    25   ar
    43    23    27    1
    44    24    25   ar
    45    25    47    1
    46    26    28   ar
    47    26    29   ar
    48    27    30    1
    49    27    48    1
    50    27    49    1
    51    28    32   ar
    52    28    51    1
    53    29    31   ar
    54    29    52    1
    55    30    35    2
    56    30    53    1
    57    31    33   ar
    58    32    33   ar
    59    34    54    1
    60    34    55    1
    61    34    56    1
    62    35    57    1
    63    35    58    1
