@<TRIPOS>MOLECULE
IMPHY007768
 96 101 0 0 0
SMALL
GASTEIGER

@<TRIPOS>ATOM
      1 O           5.4071   -2.0684    0.0000 O.3     1  UNL1       -0.3683
      2 O           3.1470   -3.3284    0.0000 O.3     1  UNL1       -0.3812
      3 O           4.5981    4.5194    0.0000 O.3     1  UNL1       -0.3947
      4 O           5.4641    7.0194    0.0000 O.3     1  UNL1       -0.3947
      5 O           2.6301   -0.7812    0.0000 O.3     1  UNL1       -0.3945
      6 O          10.7263    6.0436    0.0000 O.3     1  UNL1       -0.4914
      7 O          10.7263    3.9953    0.0000 O.3     1  UNL1       -0.5033
      8 O           8.9282    1.0194    0.0000 O.3     1  UNL1       -0.4914
      9 O           7.1962    0.0194    0.0000 O.3     1  UNL1       -0.5029
     10 O           2.8660    1.5194    0.0000 O.3     1  UNL1       -0.4914
     11 O           4.5981    2.5194    0.0000 O.3     1  UNL1       -0.5029
     12 O           2.3660   -6.0194    0.0000 O.3     1  UNL1       -0.4914
     13 O           4.0981   -7.0194    0.0000 O.3     1  UNL1       -0.5033
     14 C           6.3301    4.5194    0.0000 C.3     1  UNL1       -0.0018
     15 C           6.3301    5.5194    0.0000 C.3     1  UNL1       -0.0081
     16 C           7.1962    4.0194    0.0000 C.3     1  UNL1        0.0150
     17 C           7.1962    6.0194    0.0000 C.3     1  UNL1       -0.0220
     18 C           3.7891   -2.0684    0.0000 C.3     1  UNL1        0.0477
     19 C           4.0981   -3.0194    0.0000 C.3     1  UNL1        0.1218
     20 C           8.0622    4.5194    0.0000 C.ar    1  UNL1       -0.0328
     21 C           4.5981   -1.4806    0.0000 C.3     1  UNL1        0.0918
     22 C           8.0622    5.5194    0.0000 C.ar    1  UNL1       -0.0396
     23 C           5.4641    4.0194    0.0000 C.3     1  UNL1        0.0482
     24 C           7.1962    3.0194    0.0000 C.ar    1  UNL1       -0.0354
     25 C           5.0981   -3.0194    0.0000 C.3     1  UNL1        0.0818
     26 C           5.4641    6.0194    0.0000 C.3     1  UNL1        0.0477
     27 C           2.8380   -1.7594    0.0000 C.3     1  UNL1        0.0527
     28 C           4.5981   -0.4806    0.0000 C.ar    1  UNL1       -0.0142
     29 C           4.0981   -4.0194    0.0000 C.ar    1  UNL1       -0.0098
     30 C           8.9561    3.9848    0.0000 C.ar    1  UNL1       -0.0125
     31 C           8.9561    6.0541    0.0000 C.ar    1  UNL1       -0.0128
     32 C           6.3301    2.5194    0.0000 C.ar    1  UNL1       -0.0464
     33 C           8.0622    2.5194    0.0000 C.ar    1  UNL1       -0.0125
     34 C           6.3301    1.5194    0.0000 C.ar    1  UNL1        0.0311
     35 C           5.4641    0.0194    0.0000 C.ar    1  UNL1       -0.0445
     36 C           5.4641    1.0194    0.0000 C.ar    1  UNL1        0.0312
     37 C           9.8622    4.4986    0.0000 C.ar    1  UNL1        0.1587
     38 C           9.8622    5.5402    0.0000 C.ar    1  UNL1        0.1615
     39 C           3.7320    0.0194    0.0000 C.ar    1  UNL1       -0.0106
     40 C           3.2320   -4.5194    0.0000 C.ar    1  UNL1       -0.0103
     41 C           4.9641   -4.5194    0.0000 C.ar    1  UNL1       -0.0521
     42 C           8.0622    1.5194    0.0000 C.ar    1  UNL1        0.1622
     43 C           7.1962    1.0194    0.0000 C.ar    1  UNL1        0.1664
     44 C           4.5981    1.5194    0.0000 C.ar    1  UNL1        0.1664
     45 C           3.7320    1.0194    0.0000 C.ar    1  UNL1        0.1622
     46 C           3.2320   -5.5194    0.0000 C.ar    1  UNL1        0.1616
     47 C           4.9641   -5.5194    0.0000 C.ar    1  UNL1       -0.0162
     48 C           4.0981   -6.0194    0.0000 C.ar    1  UNL1        0.1585
     49 C          10.7224    7.0436    0.0000 C.3     1  UNL1        0.0790
     50 C           9.7942    1.5194    0.0000 C.3     1  UNL1        0.0790
     51 C           2.0000    1.0194    0.0000 C.3     1  UNL1        0.0790
     52 C           2.3660   -7.0194    0.0000 C.3     1  UNL1        0.0790
     53 H           5.7932    4.8294    0.0000 H       1  UNL1        0.0335
     54 H           6.3301    6.1394    0.0000 H       1  UNL1        0.0330
     55 H           6.6592    3.7094    0.0000 H       1  UNL1        0.0401
     56 H           3.3506   -2.5068    0.0000 H       1  UNL1        0.0384
     57 H           7.5947    6.4944    0.0000 H       1  UNL1        0.0317
     58 H           6.7976    6.4944    0.0000 H       1  UNL1        0.0317
     59 H           5.1505   -1.1991    0.0000 H       1  UNL1        0.0651
     60 H           5.0656    3.5445    0.0000 H       1  UNL1        0.0560
     61 H           5.8626    3.5445    0.0000 H       1  UNL1        0.0560
     62 H           5.0333   -3.6360    0.0000 H       1  UNL1        0.0592
     63 H           5.7045   -3.1483    0.0000 H       1  UNL1        0.0592
     64 H           4.8535    6.1271    0.0000 H       1  UNL1        0.0560
     65 H           5.2520    5.4368    0.0000 H       1  UNL1        0.0560
     66 H           2.2184   -1.7810    0.0000 H       1  UNL1        0.0562
     67 H           2.7517   -2.3733    0.0000 H       1  UNL1        0.0562
     68 H           8.9490    3.3648    0.0000 H       1  UNL1        0.0658
     69 H           8.9490    6.6740    0.0000 H       1  UNL1        0.0658
     70 H           5.7932    2.8294    0.0000 H       1  UNL1        0.0628
     71 H           8.5991    2.8294    0.0000 H       1  UNL1        0.0658
     72 H           2.6863   -2.9136    0.0000 H       1  UNL1        0.2107
     73 H           6.0010   -0.2906    0.0000 H       1  UNL1        0.0628
     74 H           3.1951   -0.2906    0.0000 H       1  UNL1        0.0659
     75 H           2.6951   -4.2094    0.0000 H       1  UNL1        0.0659
     76 H           5.5010   -4.2094    0.0000 H       1  UNL1        0.0622
     77 H           4.0611    4.2094    0.0000 H       1  UNL1        0.2094
     78 H           4.9272    7.3294    0.0000 H       1  UNL1        0.2094
     79 H           2.0404   -0.5896    0.0000 H       1  UNL1        0.2094
     80 H           5.5010   -5.8294    0.0000 H       1  UNL1        0.0655
     81 H          11.2644    4.3032    0.0000 H       1  UNL1        0.2923
     82 H           7.7331   -0.2906    0.0000 H       1  UNL1        0.2923
     83 H           4.0611    2.8294    0.0000 H       1  UNL1        0.2923
     84 H          11.3424    7.0460    0.0000 H       1  UNL1        0.0660
     85 H          10.7200    7.6636    0.0000 H       1  UNL1        0.0660
     86 H          10.1024    7.0412    0.0000 H       1  UNL1        0.0660
     87 H          10.1042    0.9825    0.0000 H       1  UNL1        0.0660
     88 H          10.3312    1.8294    0.0000 H       1  UNL1        0.0660
     89 H           9.4842    2.0564    0.0000 H       1  UNL1        0.0660
     90 H           4.6350   -7.3294    0.0000 H       1  UNL1        0.2923
     91 H           1.6900    1.5564    0.0000 H       1  UNL1        0.0660
     92 H           1.4631    0.7094    0.0000 H       1  UNL1        0.0660
     93 H           2.3100    0.4825    0.0000 H       1  UNL1        0.0660
     94 H           1.7460   -7.0194    0.0000 H       1  UNL1        0.0660
     95 H           2.3660   -7.6394    0.0000 H       1  UNL1        0.0660
     96 H           2.9860   -7.0194    0.0000 H       1  UNL1        0.0660
@<TRIPOS>BOND
     1     1    21    1
     2     1    25    1
     3    19     2    1
     4     2    72    1
     5     3    23    1
     6     3    77    1
     7     4    26    1
     8     4    78    1
     9     5    27    1
    10     5    79    1
    11     6    38    1
    12     6    49    1
    13     7    37    1
    14     7    81    1
    15     8    42    1
    16     8    50    1
    17     9    43    1
    18     9    82    1
    19    10    45    1
    20    10    51    1
    21    11    44    1
    22    11    83    1
    23    12    46    1
    24    12    52    1
    25    13    48    1
    26    13    90    1
    27    14    15    1
    28    14    16    1
    29    14    23    1
    30    14    53    1
    31    15    17    1
    32    15    26    1
    33    15    54    1
    34    16    20    1
    35    16    24    1
    36    16    55    1
    37    17    22    1
    38    17    57    1
    39    17    58    1
    40    18    19    1
    41    18    21    1
    42    18    27    1
    43    18    56    1
    44    19    25    1
    45    19    29    1
    46    20    22   ar
    47    20    30   ar
    48    21    28    1
    49    21    59    1
    50    22    31   ar
    51    23    60    1
    52    23    61    1
    53    24    32   ar
    54    24    33   ar
    55    25    62    1
    56    25    63    1
    57    26    64    1
    58    26    65    1
    59    27    66    1
    60    27    67    1
    61    28    35   ar
    62    28    39   ar
    63    29    40   ar
    64    29    41   ar
    65    30    37   ar
    66    30    68    1
    67    31    38   ar
    68    31    69    1
    69    32    34   ar
    70    32    70    1
    71    33    42   ar
    72    33    71    1
    73    34    36    1
    74    34    43   ar
    75    35    36   ar
    76    35    73    1
    77    36    44   ar
    78    37    38   ar
    79    39    45   ar
    80    39    74    1
    81    40    46   ar
    82    40    75    1
    83    41    47   ar
    84    41    76    1
    85    42    43   ar
    86    44    45   ar
    87    46    48   ar
    88    47    48   ar
    89    47    80    1
    90    49    84    1
    91    49    85    1
    92    49    86    1
    93    50    87    1
    94    50    88    1
    95    50    89    1
    96    51    91    1
    97    51    92    1
    98    51    93    1
    99    52    94    1
   100    52    95    1
   101    52    96    1
