@<TRIPOS>MOLECULE
IMPHY006162
 40 42 0 0 0
SMALL
GASTEIGER

@<TRIPOS>ATOM
      1 O           4.2690   -1.2857    0.0000 O.3     1  UNL1       -0.3339
      2 O           6.0010   -1.2857    0.0000 O.3     1  UNL1       -0.4539
      3 O           4.2690   -4.2857    0.0000 O.3     1  UNL1       -0.3864
      4 O           2.5369   -3.2857    0.0000 O.3     1  UNL1       -0.3866
      5 O           6.0010   -3.2857    0.0000 O.3     1  UNL1       -0.3829
      6 O           5.1350    1.2143    0.0000 O.2     1  UNL1       -0.4588
      7 O           7.7331   -0.2857    0.0000 O.2     1  UNL1       -0.2830
      8 O           8.6372    1.2112    0.0000 O.3     1  UNL1       -0.5058
      9 O           6.8792    4.2836    0.0000 O.3     1  UNL1       -0.5065
     10 C           4.2690   -3.2857    0.0000 C.3     1  UNL1        0.1151
     11 C           3.4030   -2.7857    0.0000 C.3     1  UNL1        0.1096
     12 C           5.1350   -2.7857    0.0000 C.3     1  UNL1        0.1454
     13 C           3.4030   -1.7857    0.0000 C.3     1  UNL1        0.0883
     14 C           5.1350   -1.7857    0.0000 C.3     1  UNL1        0.2310
     15 C           2.5369   -1.2857    0.0000 C.3     1  UNL1       -0.0360
     16 C           6.0010   -0.2857    0.0000 C.ar    1  UNL1        0.2058
     17 C           6.8671    0.2143    0.0000 C.ar    1  UNL1        0.2375
     18 C           6.8671    1.2143    0.0000 C.ar    1  UNL1        0.1091
     19 C           5.1350    0.2143    0.0000 C.ar    1  UNL1        0.1379
     20 C           6.0010    1.7143    0.0000 C.ar    1  UNL1        0.1457
     21 C           7.7771    1.7212    0.0000 C.ar    1  UNL1        0.1348
     22 C           5.9850    2.7558    0.0000 C.ar    1  UNL1        0.0231
     23 C           7.7851    2.7628    0.0000 C.ar    1  UNL1        0.0223
     24 C           6.8830    3.2836    0.0000 C.ar    1  UNL1        0.1239
     25 H           4.8059   -3.5957    0.0000 H       1  UNL1        0.0648
     26 H           3.4030   -3.4057    0.0000 H       1  UNL1        0.0646
     27 H           5.6720   -2.4757    0.0000 H       1  UNL1        0.0683
     28 H           3.4030   -1.1657    0.0000 H       1  UNL1        0.0621
     29 H           5.1350   -1.1657    0.0000 H       1  UNL1        0.1084
     30 H           2.8469   -0.7487    0.0000 H       1  UNL1        0.0255
     31 H           2.0000   -0.9757    0.0000 H       1  UNL1        0.0255
     32 H           2.2269   -1.8226    0.0000 H       1  UNL1        0.0255
     33 H           3.7320   -4.5957    0.0000 H       1  UNL1        0.2100
     34 H           2.0000   -2.9757    0.0000 H       1  UNL1        0.2100
     35 H           6.0010   -3.9057    0.0000 H       1  UNL1        0.2102
     36 H           4.5981   -0.0957    0.0000 H       1  UNL1        0.1069
     37 H           5.4445    3.0596    0.0000 H       1  UNL1        0.0691
     38 H           8.3232    3.0707    0.0000 H       1  UNL1        0.0691
     39 H           9.1777    1.5150    0.0000 H       1  UNL1        0.2922
     40 H           7.4149    4.5957    0.0000 H       1  UNL1        0.2921
@<TRIPOS>BOND
     1     1    13    1
     2     1    14    1
     3    14     2    1
     4     2    16    1
     5    10     3    1
     6     3    33    1
     7    11     4    1
     8     4    34    1
     9    12     5    1
    10     5    35    1
    11     6    19   ar
    12     6    20   ar
    13     7    17    2
    14     8    21    1
    15     8    39    1
    16     9    24    1
    17     9    40    1
    18    10    11    1
    19    10    12    1
    20    10    25    1
    21    11    13    1
    22    11    26    1
    23    12    14    1
    24    12    27    1
    25    13    15    1
    26    13    28    1
    27    14    29    1
    28    15    30    1
    29    15    31    1
    30    15    32    1
    31    16    17   ar
    32    16    19   ar
    33    17    18   ar
    34    18    20   ar
    35    18    21   ar
    36    19    36    1
    37    20    22   ar
    38    21    23   ar
    39    22    24   ar
    40    22    37    1
    41    23    24   ar
    42    23    38    1
