@<TRIPOS>MOLECULE
IMPHY000689
 58 61 0 0 0
SMALL
GASTEIGER

@<TRIPOS>ATOM
      1 O           4.5981    3.2500    0.0000 O.3     1  UNL1       -0.4914
      2 O           2.8660   -0.7500    0.0000 O.3     1  UNL1       -0.4914
      3 O           2.8660    2.2500    0.0000 O.3     1  UNL1       -0.4915
      4 O           2.8660   -2.7500    0.0000 O.3     1  UNL1       -0.4915
      5 N           8.0622   -0.7500    0.0000 N.3     1  UNL1       -0.2949
      6 C           8.0622    0.2500    0.0000 C.3     1  UNL1        0.0148
      7 C           9.0084    0.5547    0.0000 C.3     1  UNL1       -0.0359
      8 C           9.0084   -1.0547    0.0000 C.3     1  UNL1       -0.0004
      9 C           9.5920   -0.2500    0.0000 C.3     1  UNL1       -0.0388
     10 C           7.1962    0.7500    0.0000 C.3     1  UNL1       -0.0111
     11 C           7.1962   -1.2500    0.0000 C.3     1  UNL1        0.0252
     12 C           6.3301    0.2500    0.0000 C.2     1  UNL1       -0.0337
     13 C           6.3301   -0.7500    0.0000 C.2     1  UNL1       -0.0223
     14 C           5.4641    0.7500    0.0000 C.ar    1  UNL1       -0.0178
     15 C           5.4641   -1.2500    0.0000 C.ar    1  UNL1       -0.0167
     16 C           5.4641    1.7500    0.0000 C.ar    1  UNL1       -0.0089
     17 C           4.5981    0.2500    0.0000 C.ar    1  UNL1       -0.0506
     18 C           4.5981   -0.7500    0.0000 C.ar    1  UNL1       -0.0088
     19 C           5.4641   -2.2500    0.0000 C.ar    1  UNL1       -0.0506
     20 C           4.5981    2.2500    0.0000 C.ar    1  UNL1        0.1620
     21 C           3.7320   -1.2500    0.0000 C.ar    1  UNL1        0.1620
     22 C           3.7320    0.7500    0.0000 C.ar    1  UNL1       -0.0157
     23 C           4.5981   -2.7500    0.0000 C.ar    1  UNL1       -0.0157
     24 C           3.7320    1.7500    0.0000 C.ar    1  UNL1        0.1615
     25 C           3.7320   -2.2500    0.0000 C.ar    1  UNL1        0.1615
     26 C           5.4641    3.7500    0.0000 C.3     1  UNL1        0.0790
     27 C           2.0000   -1.2500    0.0000 C.3     1  UNL1        0.0790
     28 C           2.0000    1.7500    0.0000 C.3     1  UNL1        0.0790
     29 C           2.8660   -3.7500    0.0000 C.3     1  UNL1        0.0790
     30 H           8.1521    1.0952    0.0000 H       1  UNL1        0.0466
     31 H           9.5458    0.8640    0.0000 H       1  UNL1        0.0281
     32 H           8.7574    1.1216    0.0000 H       1  UNL1        0.0281
     33 H           8.7574   -1.6216    0.0000 H       1  UNL1        0.0427
     34 H           9.5458   -1.3640    0.0000 H       1  UNL1        0.0427
     35 H          10.0529   -0.6647    0.0000 H       1  UNL1        0.0278
     36 H          10.0529    0.1647    0.0000 H       1  UNL1        0.0278
     37 H           7.5947    1.2250    0.0000 H       1  UNL1        0.0329
     38 H           6.7976    1.2250    0.0000 H       1  UNL1        0.0329
     39 H           6.7976   -1.7250    0.0000 H       1  UNL1        0.0476
     40 H           7.5947   -1.7250    0.0000 H       1  UNL1        0.0476
     41 H           6.0010    2.0600    0.0000 H       1  UNL1        0.0661
     42 H           4.5981   -0.3700    0.0000 H       1  UNL1        0.0625
     43 H           4.5981   -0.1300    0.0000 H       1  UNL1        0.0661
     44 H           6.0010   -2.5600    0.0000 H       1  UNL1        0.0625
     45 H           3.1951    0.4400    0.0000 H       1  UNL1        0.0655
     46 H           4.5981   -3.3700    0.0000 H       1  UNL1        0.0655
     47 H           5.7741    3.2131    0.0000 H       1  UNL1        0.0660
     48 H           6.0010    4.0600    0.0000 H       1  UNL1        0.0660
     49 H           5.1541    4.2869    0.0000 H       1  UNL1        0.0660
     50 H           1.6900   -0.7131    0.0000 H       1  UNL1        0.0660
     51 H           1.4631   -1.5600    0.0000 H       1  UNL1        0.0660
     52 H           2.3100   -1.7869    0.0000 H       1  UNL1        0.0660
     53 H           1.6900    2.2869    0.0000 H       1  UNL1        0.0660
     54 H           1.4631    1.4400    0.0000 H       1  UNL1        0.0660
     55 H           2.3100    1.2131    0.0000 H       1  UNL1        0.0660
     56 H           2.2460   -3.7500    0.0000 H       1  UNL1        0.0660
     57 H           2.8660   -4.3700    0.0000 H       1  UNL1        0.0660
     58 H           3.4860   -3.7500    0.0000 H       1  UNL1        0.0660
@<TRIPOS>BOND
     1     1    20    1
     2     1    26    1
     3     2    21    1
     4     2    27    1
     5     3    24    1
     6     3    28    1
     7     4    25    1
     8     4    29    1
     9     5     6    1
    10     5     8    1
    11     5    11    1
    12     6     7    1
    13     6    10    1
    14     6    30    1
    15     7     9    1
    16     7    31    1
    17     7    32    1
    18     8     9    1
    19     8    33    1
    20     8    34    1
    21     9    35    1
    22     9    36    1
    23    10    12    1
    24    10    37    1
    25    10    38    1
    26    11    13    1
    27    11    39    1
    28    11    40    1
    29    12    13    2
    30    12    14    1
    31    13    15    1
    32    14    16   ar
    33    14    17   ar
    34    15    18   ar
    35    15    19   ar
    36    16    20   ar
    37    16    41    1
    38    17    22   ar
    39    17    42    1
    40    18    21   ar
    41    18    43    1
    42    19    23   ar
    43    19    44    1
    44    20    24   ar
    45    21    25   ar
    46    22    24   ar
    47    22    45    1
    48    23    25   ar
    49    23    46    1
    50    26    47    1
    51    26    48    1
    52    26    49    1
    53    27    50    1
    54    27    51    1
    55    27    52    1
    56    28    53    1
    57    28    54    1
    58    28    55    1
    59    29    56    1
    60    29    57    1
    61    29    58    1
