@<TRIPOS>MOLECULE
IMPHY003613
 37 41 0 0 0
SMALL
GASTEIGER

@<TRIPOS>ATOM
      1 C          12.9481   -2.0070    0.0000 C.2     1  UNL1       -0.0091
      2 C          11.7957   -1.3337    0.0000 C.2     1  UNL1       -0.0442
      3 C          11.7957    0.0000    0.0000 C.3     1  UNL1        0.0263
      4 C          10.6433   -2.0070    0.0000 C.3     1  UNL1        0.0183
      5 C          10.1901   -0.7510    0.0000 C.3     1  UNL1        0.0043
      6 C          10.6433   -3.3277    0.0000 C.3     1  UNL1        0.0037
      7 C           9.4909   -4.0010    0.0000 C.3     1  UNL1       -0.0039
      8 C           9.4909   -5.3217    0.0000 C.3     1  UNL1       -0.0225
      9 C           9.9441   -6.5776    0.0000 C.3     1  UNL1       -0.0045
     10 C           8.3386   -5.9950    0.0000 C.3     1  UNL1       -0.0224
     11 C           9.1154   -7.0696    0.0000 C.3     1  UNL1       -0.0042
     12 C           8.3386   -8.1443    0.0000 C.3     1  UNL1       -0.0006
     13 C           7.0826   -7.7429    0.0000 C.3     1  UNL1       -0.0037
     14 C           7.2121   -9.0636    0.0000 C.3     1  UNL1       -0.0003
     15 C           5.9173   -8.4033    0.0000 C.3     1  UNL1       -0.0191
     16 C           5.9173   -9.7369    0.0000 C.3     1  UNL1       -0.0042
     17 C           4.7649  -10.3973    0.0000 C.3     1  UNL1       -0.0042
     18 C           3.6125   -9.7369    0.0000 C.3     1  UNL1       -0.0171
     19 C           2.4601  -10.3973    0.0000 C.3     1  UNL1        0.0191
     20 C           1.6056  -11.4202    0.0000 C.3     1  UNL1        0.0018
     21 C           3.3147  -11.4202    0.0000 C.3     1  UNL1        0.0018
     22 C           1.3078   -9.7369    0.0000 C.3     1  UNL1        0.1081
     23 C           1.3078   -8.4033    0.0000 C.3     1  UNL1        0.0264
     24 C           2.4601   -7.7429    0.0000 C.3     1  UNL1        0.0019
     25 C           3.6125   -8.4033    0.0000 C.3     1  UNL1       -0.0035
     26 C           3.6125   -7.0696    0.0000 C.3     1  UNL1       -0.0006
     27 C           4.7649   -7.7429    0.0000 C.3     1  UNL1       -0.0037
     28 C           4.7649   -6.4093    0.0000 C.3     1  UNL1       -0.0003
     29 C           5.9173   -5.7489    0.0000 C.3     1  UNL1       -0.0003
     30 C           7.0826   -6.4093    0.0000 C.3     1  UNL1       -0.0039
     31 C           7.2121   -5.0886    0.0000 C.3     1  UNL1       -0.0003
     32 O           0.0000   -9.5039    0.0000 O.3     1  UNL1       -0.2299
     33 H           0.8546  -10.9800    0.0000 H       1  UNL1        0.0640
     34 H           2.4601   -9.0636    0.0000 H       1  UNL1        0.0319
     35 H           5.9302   -7.0696    0.0000 H       1  UNL1        0.0318
     36 H           8.3903   -7.3157    0.0000 H       1  UNL1        0.0316
     37 H          10.7987   -5.1015    0.0000 H       1  UNL1        0.0316
@<TRIPOS>BOND
     1     1     2    2
     2     2     3    1
     3     2     4    1
     4     4     5    1
     5     4     6    1
     6     6     7    1
     7     7     8    1
     8     8     9    1
     9     8    10    1
    10     8    37    1
    11    10    11    1
    12    10    30    1
    13    10    36    1
    14    11    12    1
    15    12    13    1
    16    13    14    1
    17    13    15    1
    18    13    30    1
    19    15    16    1
    20    15    27    1
    21    15    35    1
    22    16    17    1
    23    17    18    1
    24    18    19    1
    25    18    25    1
    26    18    34    1
    27    19    20    1
    28    19    21    1
    29    19    22    1
    30    22    23    1
    31    22    32    1
    32    22    33    1
    33    23    24    1
    34    25    24    1
    35    25    26    1
    36    25    27    1
    37    27    26    1
    38    27    28    1
    39    28    29    1
    40    29    30    1
    41    30    31    1
