@<TRIPOS>MOLECULE
IMPHY011055
 15 14 0 0 0
SMALL
GASTEIGER

@<TRIPOS>ATOM
      1 O           2.5369    0.7500    0.0000 O.3     1  UNL1       -0.4806
      2 O           3.4030   -0.7500    0.0000 O.2     1  UNL1       -0.2510
      3 C           5.1350    0.2500    0.0000 C.3     1  UNL1       -0.0249
      4 C           4.2690    0.7500    0.0000 C.3     1  UNL1        0.0482
      5 C           6.0010    0.7500    0.0000 C.2     1  UNL1       -0.0906
      6 C           3.4030    0.2500    0.0000 C.2     1  UNL1        0.3050
      7 C           6.8671    0.2500    0.0000 C.2     1  UNL1       -0.1026
      8 H           4.7365   -0.2249    0.0000 H       1  UNL1        0.0312
      9 H           5.5335   -0.2249    0.0000 H       1  UNL1        0.0312
     10 H           4.6675    1.2250    0.0000 H       1  UNL1        0.0380
     11 H           3.8705    1.2250    0.0000 H       1  UNL1        0.0380
     12 H           6.0010    1.3700    0.0000 H       1  UNL1        0.0566
     13 H           6.8671   -0.3700    0.0000 H       1  UNL1        0.0532
     14 H           7.4040    0.5600    0.0000 H       1  UNL1        0.0532
     15 H           2.0000    0.4400    0.0000 H       1  UNL1        0.2951
@<TRIPOS>BOND
     1     1     6    1
     2     1    15    1
     3     2     6    2
     4     3     4    1
     5     3     5    1
     6     3     8    1
     7     3     9    1
     8     4     6    1
     9     4    10    1
    10     4    11    1
    11     5     7    2
    12     5    12    1
    13     7    13    1
    14     7    14    1
