@<TRIPOS>MOLECULE
IMPHY000381
 78 79 0 0 0
SMALL
GASTEIGER

@<TRIPOS>ATOM
      1 O           4.5579   -1.8472    0.0000 O.2     1  UNL1       -0.2971
      2 O           7.0892    5.0013    0.0000 O.3     1  UNL1       -0.3918
      3 C           3.5579   -0.1151    0.0000 C.3     1  UNL1       -0.0289
      4 C           2.9386    0.6205    0.0000 C.3     1  UNL1       -0.0370
      5 C           4.5045   -0.2836    0.0000 C.3     1  UNL1       -0.0493
      6 C           3.0579   -0.9811    0.0000 C.3     1  UNL1        0.0178
      7 C           5.3396    0.1931    0.0000 C.3     1  UNL1       -0.0520
      8 C           2.9339    1.5820    0.0000 C.3     1  UNL1       -0.0316
      9 C           5.3571    2.0013    0.0000 C.3     1  UNL1       -0.0016
     10 C           5.6758    1.0940    0.0000 C.3     1  UNL1       -0.0430
     11 C           4.4911    2.5013    0.0000 C.2     1  UNL1       -0.0638
     12 C           4.4911    3.5013    0.0000 C.3     1  UNL1       -0.0221
     13 C           3.5461    2.3236    0.0000 C.2     1  UNL1       -0.0837
     14 C           2.0000    0.2754    0.0000 C.3     1  UNL1       -0.0619
     15 C           3.5579   -1.8472    0.0000 C.2     1  UNL1        0.1367
     16 C           2.0579   -0.9811    0.0000 C.3     1  UNL1       -0.0554
     17 C           5.3571    4.0013    0.0000 C.3     1  UNL1       -0.0444
     18 C           3.0579   -2.7132    0.0000 C.3     1  UNL1        0.0089
     19 C           6.2231    2.5013    0.0000 C.2     1  UNL1       -0.0808
     20 C           3.5579   -3.5792    0.0000 C.3     1  UNL1       -0.0349
     21 C           6.2231    3.5013    0.0000 C.3     1  UNL1       -0.0263
     22 C           3.6250    4.0013    0.0000 C.3     1  UNL1       -0.0587
     23 C           7.0892    4.0013    0.0000 C.3     1  UNL1        0.0556
     24 C           3.0579   -4.4452    0.0000 C.3     1  UNL1       -0.0437
     25 C           7.9552    3.5013    0.0000 C.3     1  UNL1       -0.0234
     26 C           7.0892    2.0013    0.0000 C.2     1  UNL1       -0.0873
     27 C           7.9552    2.5013    0.0000 C.3     1  UNL1       -0.0324
     28 C           4.5579   -3.5792    0.0000 C.3     1  UNL1       -0.0618
     29 C           3.5579   -5.3113    0.0000 C.3     1  UNL1       -0.0624
     30 C           2.0579   -4.4452    0.0000 C.3     1  UNL1       -0.0624
     31 H           3.9165   -0.8858    0.0000 H       1  UNL1        0.0310
     32 H           2.4293    0.9741    0.0000 H       1  UNL1        0.0304
     33 H           4.2248   -0.8369    0.0000 H       1  UNL1        0.0268
     34 H           4.9539   -0.7108    0.0000 H       1  UNL1        0.0268
     35 H           2.7479   -0.4442    0.0000 H       1  UNL1        0.0377
     36 H           5.4790   -0.4110    0.0000 H       1  UNL1        0.0266
     37 H           5.9583    0.1528    0.0000 H       1  UNL1        0.0266
     38 H           2.5896    2.0977    0.0000 H       1  UNL1        0.0310
     39 H           2.3410    1.4007    0.0000 H       1  UNL1        0.0310
     40 H           6.1542    1.7060    0.0000 H       1  UNL1        0.0388
     41 H           6.1697    0.7193    0.0000 H       1  UNL1        0.0274
     42 H           6.1768    1.4592    0.0000 H       1  UNL1        0.0274
     43 H           4.4911    4.1213    0.0000 H       1  UNL1        0.0343
     44 H           3.2309    2.8575    0.0000 H       1  UNL1        0.0572
     45 H           1.7861    0.8574    0.0000 H       1  UNL1        0.0233
     46 H           1.4181    0.0615    0.0000 H       1  UNL1        0.0233
     47 H           2.2139   -0.3065    0.0000 H       1  UNL1        0.0233
     48 H           2.0579   -0.3611    0.0000 H       1  UNL1        0.0236
     49 H           1.4379   -0.9811    0.0000 H       1  UNL1        0.0236
     50 H           2.0579   -1.6011    0.0000 H       1  UNL1        0.0236
     51 H           5.7556    4.4762    0.0000 H       1  UNL1        0.0272
     52 H           4.9586    4.4762    0.0000 H       1  UNL1        0.0272
     53 H           2.5829   -2.3147    0.0000 H       1  UNL1        0.0344
     54 H           2.5829   -3.1117    0.0000 H       1  UNL1        0.0344
     55 H           6.6216    2.9762    0.0000 H       1  UNL1        0.0575
     56 H           3.8679   -3.0423    0.0000 H       1  UNL1        0.0305
     57 H           5.8246    3.0263    0.0000 H       1  UNL1        0.0290
     58 H           6.6216    3.0263    0.0000 H       1  UNL1        0.0290
     59 H           3.9350    4.5382    0.0000 H       1  UNL1        0.0235
     60 H           3.0881    4.3113    0.0000 H       1  UNL1        0.0235
     61 H           3.3150    3.4643    0.0000 H       1  UNL1        0.0235
     62 H           7.6261    4.3113    0.0000 H       1  UNL1        0.0593
     63 H           3.6779   -4.4452    0.0000 H       1  UNL1        0.0298
     64 H           8.5658    3.3936    0.0000 H       1  UNL1        0.0293
     65 H           8.1672    4.0839    0.0000 H       1  UNL1        0.0293
     66 H           7.0892    1.3813    0.0000 H       1  UNL1        0.0569
     67 H           8.1672    1.9187    0.0000 H       1  UNL1        0.0308
     68 H           8.5658    2.6089    0.0000 H       1  UNL1        0.0308
     69 H           4.5579   -4.1992    0.0000 H       1  UNL1        0.0233
     70 H           5.1779   -3.5792    0.0000 H       1  UNL1        0.0233
     71 H           4.5579   -2.9592    0.0000 H       1  UNL1        0.0233
     72 H           2.0579   -3.8252    0.0000 H       1  UNL1        0.0232
     73 H           1.4379   -4.4452    0.0000 H       1  UNL1        0.0232
     74 H           2.0579   -5.0652    0.0000 H       1  UNL1        0.0232
     75 H           3.0209   -5.6213    0.0000 H       1  UNL1        0.0232
     76 H           3.8679   -5.8482    0.0000 H       1  UNL1        0.0232
     77 H           4.0948   -5.0013    0.0000 H       1  UNL1        0.0232
     78 H           7.6261    5.3113    0.0000 H       1  UNL1        0.2098
@<TRIPOS>BOND
     1     1    15    2
     2    23     2    1
     3     2    78    1
     4     3     4    1
     5     3     5    1
     6     3     6    1
     7     3    31    1
     8     4     8    1
     9     4    14    1
    10     4    32    1
    11     5     7    1
    12     5    33    1
    13     5    34    1
    14     6    15    1
    15     6    16    1
    16     6    35    1
    17     7    10    1
    18     7    36    1
    19     7    37    1
    20     8    13    1
    21     8    38    1
    22     8    39    1
    23     9    10    1
    24     9    11    1
    25     9    19    1
    26     9    40    1
    27    10    41    1
    28    10    42    1
    29    11    12    1
    30    11    13    2
    31    12    17    1
    32    12    22    1
    33    12    43    1
    34    13    44    1
    35    14    45    1
    36    14    46    1
    37    14    47    1
    38    15    18    1
    39    16    48    1
    40    16    49    1
    41    16    50    1
    42    17    21    1
    43    17    51    1
    44    17    52    1
    45    18    20    1
    46    18    53    1
    47    18    54    1
    48    19    26    2
    49    19    55    1
    50    20    24    1
    51    20    28    1
    52    20    56    1
    53    21    23    1
    54    21    57    1
    55    21    58    1
    56    22    59    1
    57    22    60    1
    58    22    61    1
    59    23    25    1
    60    23    62    1
    61    24    29    1
    62    24    30    1
    63    24    63    1
    64    25    27    1
    65    25    64    1
    66    25    65    1
    67    26    27    1
    68    26    66    1
    69    27    67    1
    70    27    68    1
    71    28    69    1
    72    28    70    1
    73    28    71    1
    74    29    75    1
    75    29    76    1
    76    29    77    1
    77    30    72    1
    78    30    73    1
    79    30    74    1
