@<TRIPOS>MOLECULE
IMPHY003310
 50 54 0 0 0
SMALL
GASTEIGER

@<TRIPOS>ATOM
      1 O           4.0413    2.3837    0.0000 O.3     1  UNL1       -0.4853
      2 N           5.2612   -0.9180    0.0000 N.ar    1  UNL1       -0.3538
      3 C           5.8157    1.7289    0.0000 C.3     1  UNL1       -0.0003
      4 C           6.0745    2.6948    0.0000 C.3     1  UNL1        0.1085
      5 C           5.3379    3.6774    0.0000 C.3     1  UNL1       -0.0056
      6 C           7.0874    0.9342    0.0000 C.3     1  UNL1       -0.0132
      7 C           7.5062    2.4971    0.0000 C.3     1  UNL1       -0.0126
      8 C           7.8646    1.5636    0.0000 C.3     1  UNL1       -0.0424
      9 C           4.5947    0.8632    0.0000 C.ar    1  UNL1        0.0222
     10 C           3.7657    1.4224    0.0000 C.ar    1  UNL1        0.1296
     11 C           6.3334    3.6607    0.0000 C.3     1  UNL1       -0.0249
     12 C           7.6320    0.0956    0.0000 C.2     1  UNL1       -0.0760
     13 C           4.5381   -0.1769    0.0000 C.ar    1  UNL1        0.0545
     14 C           2.8225    0.9803    0.0000 C.ar    1  UNL1       -0.0078
     15 C           3.6054   -0.6407    0.0000 C.ar    1  UNL1        0.0081
     16 C           2.7418   -0.0582    0.0000 C.ar    1  UNL1       -0.0456
     17 C           8.6307    0.1479    0.0000 C.3     1  UNL1       -0.0438
     18 C           3.7601   -1.6646    0.0000 C.ar    1  UNL1        0.0074
     19 C           4.7813   -1.8356    0.0000 C.ar    1  UNL1        0.0475
     20 C           7.1781   -0.7954    0.0000 C.2     1  UNL1       -0.0994
     21 C           2.0000    1.5490    0.0000 C.3     1  UNL1       -0.0362
     22 C           3.0611   -2.4860    0.0000 C.ar    1  UNL1       -0.0520
     23 C           5.1744   -2.8400    0.0000 C.ar    1  UNL1       -0.0378
     24 C           3.4309   -3.4992    0.0000 C.ar    1  UNL1       -0.0611
     25 C           4.4947   -3.6774    0.0000 C.ar    1  UNL1       -0.0598
     26 H           6.3180    2.0923    0.0000 H       1  UNL1        0.0358
     27 H           5.6557    4.2098    0.0000 H       1  UNL1        0.0310
     28 H           4.7248    3.7694    0.0000 H       1  UNL1        0.0310
     29 H           6.6528    0.4920    0.0000 H       1  UNL1        0.0351
     30 H           8.1140    2.6195    0.0000 H       1  UNL1        0.0304
     31 H           7.4871    3.1168    0.0000 H       1  UNL1        0.0304
     32 H           8.2022    1.0436    0.0000 H       1  UNL1        0.0272
     33 H           8.4170    1.8450    0.0000 H       1  UNL1        0.0272
     34 H           6.9322    3.5002    0.0000 H       1  UNL1        0.0268
     35 H           6.4938    4.2596    0.0000 H       1  UNL1        0.0268
     36 H           5.7345    3.8212    0.0000 H       1  UNL1        0.0268
     37 H           2.1836   -0.3279    0.0000 H       1  UNL1        0.0628
     38 H           5.8374   -1.1469    0.0000 H       1  UNL1        0.1659
     39 H           8.6631   -0.4713    0.0000 H       1  UNL1        0.0274
     40 H           9.2498    0.1803    0.0000 H       1  UNL1        0.0274
     41 H           8.5982    0.7670    0.0000 H       1  UNL1        0.0274
     42 H           6.5589   -0.8279    0.0000 H       1  UNL1        0.0534
     43 H           7.5158   -1.3154    0.0000 H       1  UNL1        0.0534
     44 H           2.3526    2.0590    0.0000 H       1  UNL1        0.0279
     45 H           1.4900    1.9016    0.0000 H       1  UNL1        0.0279
     46 H           1.6474    1.0390    0.0000 H       1  UNL1        0.0279
     47 H           2.4509   -2.3765    0.0000 H       1  UNL1        0.0624
     48 H           5.7870   -2.9353    0.0000 H       1  UNL1        0.0638
     49 H           3.0346   -3.9760    0.0000 H       1  UNL1        0.0618
     50 H           4.7139   -4.2573    0.0000 H       1  UNL1        0.0618
@<TRIPOS>BOND
     1     1     4    1
     2     1    10    1
     3     2    13   ar
     4     2    19   ar
     5     2    38    1
     6     3     5    1
     7     3     6    1
     8     3     9    1
     9     3    26    1
    10     4     5    1
    11     4     7    1
    12     4    11    1
    13     5    27    1
    14     5    28    1
    15     6     8    1
    16     6    12    1
    17     6    29    1
    18     7     8    1
    19     7    30    1
    20     7    31    1
    21     8    32    1
    22     8    33    1
    23     9    10   ar
    24     9    13   ar
    25    10    14   ar
    26    11    34    1
    27    11    35    1
    28    11    36    1
    29    12    17    1
    30    12    20    2
    31    13    15   ar
    32    14    16   ar
    33    14    21    1
    34    15    16   ar
    35    15    18   ar
    36    16    37    1
    37    17    39    1
    38    17    40    1
    39    17    41    1
    40    18    19   ar
    41    18    22   ar
    42    19    23   ar
    43    20    42    1
    44    20    43    1
    45    21    44    1
    46    21    45    1
    47    21    46    1
    48    22    24   ar
    49    22    47    1
    50    23    25   ar
    51    23    48    1
    52    24    25   ar
    53    24    49    1
    54    25    50    1
