@<TRIPOS>MOLECULE
IMPHY016347
 33 32 0 0 0
SMALL
GASTEIGER

@<TRIPOS>ATOM
      1 O           4.9641    0.6645    0.0000 O.3     1  UNL1       -0.3888
      2 C           5.4641   -0.2015    0.0000 C.3     1  UNL1        0.0636
      3 C           6.3301    0.2985    0.0000 C.3     1  UNL1       -0.0219
      4 C           4.5981   -0.7015    0.0000 C.3     1  UNL1       -0.0243
      5 C           7.1962   -0.2015    0.0000 C.3     1  UNL1       -0.0441
      6 C           3.7320   -0.2015    0.0000 C.3     1  UNL1       -0.0507
      7 C           5.9641   -1.0675    0.0000 C.3     1  UNL1       -0.0361
      8 C           2.8660   -0.7015    0.0000 C.3     1  UNL1       -0.0558
      9 C           8.0622    0.2985    0.0000 C.3     1  UNL1       -0.0626
     10 C           7.1962   -1.2015    0.0000 C.3     1  UNL1       -0.0626
     11 C           2.0000   -0.2015    0.0000 C.3     1  UNL1       -0.0653
     12 H           6.7287    0.7735    0.0000 H       1  UNL1        0.0295
     13 H           5.9316    0.7735    0.0000 H       1  UNL1        0.0295
     14 H           4.1996   -1.1764    0.0000 H       1  UNL1        0.0293
     15 H           4.9966   -1.1764    0.0000 H       1  UNL1        0.0293
     16 H           6.6592   -0.5115    0.0000 H       1  UNL1        0.0296
     17 H           4.1306    0.2735    0.0000 H       1  UNL1        0.0266
     18 H           3.3335    0.2735    0.0000 H       1  UNL1        0.0266
     19 H           5.4272   -1.3775    0.0000 H       1  UNL1        0.0257
     20 H           6.2741   -1.6044    0.0000 H       1  UNL1        0.0257
     21 H           6.5010   -0.7575    0.0000 H       1  UNL1        0.0257
     22 H           2.4675   -1.1764    0.0000 H       1  UNL1        0.0263
     23 H           3.2646   -1.1764    0.0000 H       1  UNL1        0.0263
     24 H           8.3722   -0.2384    0.0000 H       1  UNL1        0.0232
     25 H           8.5991    0.6085    0.0000 H       1  UNL1        0.0232
     26 H           7.7522    0.8355    0.0000 H       1  UNL1        0.0232
     27 H           6.5762   -1.2015    0.0000 H       1  UNL1        0.0232
     28 H           7.1962   -1.8215    0.0000 H       1  UNL1        0.0232
     29 H           7.8162   -1.2015    0.0000 H       1  UNL1        0.0232
     30 H           5.2741    1.2015    0.0000 H       1  UNL1        0.2101
     31 H           2.3100    0.3355    0.0000 H       1  UNL1        0.0230
     32 H           1.4631    0.1085    0.0000 H       1  UNL1        0.0230
     33 H           1.6900   -0.7384    0.0000 H       1  UNL1        0.0230
@<TRIPOS>BOND
     1     1     2    1
     2     1    30    1
     3     2     3    1
     4     2     4    1
     5     2     7    1
     6     3     5    1
     7     3    12    1
     8     3    13    1
     9     4     6    1
    10     4    14    1
    11     4    15    1
    12     5     9    1
    13     5    10    1
    14     5    16    1
    15     6     8    1
    16     6    17    1
    17     6    18    1
    18     7    19    1
    19     7    20    1
    20     7    21    1
    21     8    11    1
    22     8    22    1
    23     8    23    1
    24     9    24    1
    25     9    25    1
    26     9    26    1
    27    10    27    1
    28    10    28    1
    29    10    29    1
    30    11    31    1
    31    11    32    1
    32    11    33    1
