@<TRIPOS>MOLECULE
IMPHY005057
 25 26 0 0 0
SMALL
GASTEIGER

@<TRIPOS>ATOM
      1 O           6.0290   -1.1897    0.0000 O.2     1  UNL1       -0.4592
      2 O           4.2690    1.8450    0.0000 O.3     1  UNL1       -0.5058
      3 O           2.5369   -1.1550    0.0000 O.3     1  UNL1       -0.5063
      4 O           6.0174    1.8796    0.0000 O.2     1  UNL1       -0.2869
      5 C           5.1350   -0.6550    0.0000 C.ar    1  UNL1        0.1486
      6 C           5.1350    0.3450    0.0000 C.ar    1  UNL1        0.1057
      7 C           4.2690   -1.1550    0.0000 C.ar    1  UNL1        0.0341
      8 C           4.2690    0.8450    0.0000 C.ar    1  UNL1        0.1347
      9 C           3.4030   -0.6550    0.0000 C.ar    1  UNL1        0.1267
     10 C           6.0290    0.8797    0.0000 C.ar    1  UNL1        0.1963
     11 C           3.4030    0.3450    0.0000 C.ar    1  UNL1        0.0225
     12 C           6.9350   -0.6758    0.0000 C.ar    1  UNL1        0.1063
     13 C           6.9350    0.3658    0.0000 C.ar    1  UNL1        0.0237
     14 C           4.2690   -2.1550    0.0000 C.3     1  UNL1       -0.0327
     15 C           7.7991   -1.1792    0.0000 C.3     1  UNL1       -0.0062
     16 H           2.8660    0.6550    0.0000 H       1  UNL1        0.0691
     17 H           7.4708    0.6779    0.0000 H       1  UNL1        0.0689
     18 H           3.6490   -2.1550    0.0000 H       1  UNL1        0.0280
     19 H           4.2690   -2.7750    0.0000 H       1  UNL1        0.0280
     20 H           4.8890   -2.1550    0.0000 H       1  UNL1        0.0280
     21 H           7.4870   -1.7149    0.0000 H       1  UNL1        0.0308
     22 H           8.3348   -1.4912    0.0000 H       1  UNL1        0.0308
     23 H           8.1112   -0.6434    0.0000 H       1  UNL1        0.0308
     24 H           3.7320    2.1550    0.0000 H       1  UNL1        0.2922
     25 H           2.0000   -0.8450    0.0000 H       1  UNL1        0.2921
@<TRIPOS>BOND
     1     1     5   ar
     2     1    12   ar
     3     2     8    1
     4     2    24    1
     5     3     9    1
     6     3    25    1
     7     4    10    2
     8     5     6   ar
     9     5     7   ar
    10     6     8   ar
    11     6    10   ar
    12     7     9   ar
    13     7    14    1
    14     8    11   ar
    15     9    11   ar
    16    10    13   ar
    17    11    16    1
    18    12    13   ar
    19    12    15    1
    20    13    17    1
    21    14    18    1
    22    14    19    1
    23    14    20    1
    24    15    21    1
    25    15    22    1
    26    15    23    1
