@<TRIPOS>MOLECULE
IMPHY008432
 34 35 0 0 0
SMALL
GASTEIGER

@<TRIPOS>ATOM
      1 O           6.3580   -1.1897    0.0000 O.3     1  UNL1       -0.4814
      2 O           2.8660   -1.1550    0.0000 O.3     1  UNL1       -0.4942
      3 O           4.5981    1.8450    0.0000 O.3     1  UNL1       -0.5052
      4 O           2.8660    1.8450    0.0000 O.2     1  UNL1       -0.2921
      5 C           7.2641   -0.6758    0.0000 C.3     1  UNL1        0.1235
      6 C           5.4641    0.3450    0.0000 C.ar    1  UNL1        0.0588
      7 C           5.4641   -0.6550    0.0000 C.ar    1  UNL1        0.1359
      8 C           7.2641    0.3658    0.0000 C.2     1  UNL1       -0.0408
      9 C           8.2641   -0.6797    0.0000 C.3     1  UNL1       -0.0215
     10 C           7.7608   -1.5438    0.0000 C.3     1  UNL1       -0.0215
     11 C           6.3580    0.8797    0.0000 C.2     1  UNL1       -0.0478
     12 C           4.5981    0.8450    0.0000 C.ar    1  UNL1        0.1414
     13 C           4.5981   -1.1550    0.0000 C.ar    1  UNL1        0.0233
     14 C           3.7320    0.3450    0.0000 C.ar    1  UNL1        0.1008
     15 C           3.7320   -0.6550    0.0000 C.ar    1  UNL1        0.1376
     16 C           2.8660    0.8450    0.0000 C.2     1  UNL1        0.1672
     17 C           2.0000    0.3450    0.0000 C.3     1  UNL1       -0.0012
     18 C           2.8660   -2.1550    0.0000 C.3     1  UNL1        0.0788
     19 H           7.7998    0.6779    0.0000 H       1  UNL1        0.0611
     20 H           8.2617   -1.2997    0.0000 H       1  UNL1        0.0271
     21 H           8.8841   -0.6821    0.0000 H       1  UNL1        0.0271
     22 H           8.2665   -0.0597    0.0000 H       1  UNL1        0.0271
     23 H           7.2226   -1.8517    0.0000 H       1  UNL1        0.0271
     24 H           8.0687   -2.0819    0.0000 H       1  UNL1        0.0271
     25 H           8.2989   -1.2358    0.0000 H       1  UNL1        0.0271
     26 H           6.3509    1.4996    0.0000 H       1  UNL1        0.0624
     27 H           4.5981   -1.7750    0.0000 H       1  UNL1        0.0691
     28 H           5.1350    2.1550    0.0000 H       1  UNL1        0.2922
     29 H           1.6900    0.8819    0.0000 H       1  UNL1        0.0309
     30 H           1.4631    0.0350    0.0000 H       1  UNL1        0.0309
     31 H           2.3100   -0.1919    0.0000 H       1  UNL1        0.0309
     32 H           2.2460   -2.1550    0.0000 H       1  UNL1        0.0660
     33 H           2.8660   -2.7750    0.0000 H       1  UNL1        0.0660
     34 H           3.4860   -2.1550    0.0000 H       1  UNL1        0.0660
@<TRIPOS>BOND
     1     1     5    1
     2     1     7    1
     3     2    15    1
     4     2    18    1
     5     3    12    1
     6     3    28    1
     7     4    16    2
     8     5     8    1
     9     5     9    1
    10     5    10    1
    11     6     7   ar
    12     6    11    1
    13     6    12   ar
    14     7    13   ar
    15     8    11    2
    16     8    19    1
    17     9    20    1
    18     9    21    1
    19     9    22    1
    20    10    23    1
    21    10    24    1
    22    10    25    1
    23    11    26    1
    24    12    14   ar
    25    13    15   ar
    26    13    27    1
    27    14    15   ar
    28    14    16    1
    29    16    17    1
    30    17    29    1
    31    17    30    1
    32    17    31    1
    33    18    32    1
    34    18    33    1
    35    18    34    1
