@<TRIPOS>MOLECULE
IMPHY008385
 56 61 0 0 0
SMALL
GASTEIGER

@<TRIPOS>ATOM
      1 O           7.9206   -0.7440    0.0000 O.3     1  UNL1       -0.4930
      2 O           6.6498    3.6400    0.0000 O.3     1  UNL1       -0.4930
      3 N           5.3923   -0.2301    0.0000 N.ar    1  UNL1       -0.3047
      4 N           4.5274    3.0409    0.0000 N.ar    1  UNL1       -0.3512
      5 C           5.7123    0.7174    0.0000 C.ar    1  UNL1        0.0601
      6 C           5.0274    1.5021    0.0000 C.ar    1  UNL1        0.0351
      7 C           5.9707   -1.0458    0.0000 C.ar    1  UNL1        0.0968
      8 C           4.4378   -0.5281    0.0000 C.ar    1  UNL1        0.0551
      9 C           5.3736   -1.8480    0.0000 C.ar    1  UNL1        0.0118
     10 C           4.4262   -1.5280    0.0000 C.ar    1  UNL1        0.0081
     11 C           5.3364    2.4532    0.0000 C.ar    1  UNL1        0.0917
     12 C           4.0274    1.5021    0.0000 C.ar    1  UNL1        0.0095
     13 C           6.7328    0.9261    0.0000 C.ar    1  UNL1       -0.0224
     14 C           3.7183    2.4532    0.0000 C.ar    1  UNL1        0.0476
     15 C           7.0071   -1.1507    0.0000 C.ar    1  UNL1        0.1447
     16 C           6.3518    2.6854    0.0000 C.ar    1  UNL1        0.1443
     17 C           7.0547    1.9167    0.0000 C.ar    1  UNL1       -0.0130
     18 C           5.7715   -2.8106    0.0000 C.ar    1  UNL1       -0.0488
     19 C           3.5501    0.0169    0.0000 C.ar    1  UNL1       -0.0372
     20 C           3.5261   -2.0523    0.0000 C.ar    1  UNL1       -0.0520
     21 C           6.8051   -2.9395    0.0000 C.ar    1  UNL1       -0.0463
     22 C           7.4271   -2.1039    0.0000 C.ar    1  UNL1       -0.0149
     23 C           7.6827    0.6134    0.0000 C.3     1  UNL1       -0.0376
     24 C           3.3424    0.7174    0.0000 C.ar    1  UNL1       -0.0519
     25 C           2.7029    2.6854    0.0000 C.ar    1  UNL1       -0.0378
     26 C           2.6381   -0.4864    0.0000 C.ar    1  UNL1       -0.0598
     27 C           2.6261   -1.5280    0.0000 C.ar    1  UNL1       -0.0611
     28 C           2.3219    0.9261    0.0000 C.ar    1  UNL1       -0.0611
     29 C           2.0000    1.9167    0.0000 C.ar    1  UNL1       -0.0598
     30 C           7.1977   -3.8592    0.0000 C.3     1  UNL1       -0.0396
     31 C           8.7296   -1.3318    0.0000 C.3     1  UNL1        0.0789
     32 C           7.6255    3.8592    0.0000 C.3     1  UNL1        0.0789
     33 H           4.5274    3.6609    0.0000 H       1  UNL1        0.1660
     34 H           7.6607    2.0480    0.0000 H       1  UNL1        0.0658
     35 H           5.3955   -3.3037    0.0000 H       1  UNL1        0.0627
     36 H           3.5644    0.6367    0.0000 H       1  UNL1        0.0638
     37 H           3.5261   -2.6723    0.0000 H       1  UNL1        0.0624
     38 H           8.0432   -2.1735    0.0000 H       1  UNL1        0.0657
     39 H           7.4888    0.0245    0.0000 H       1  UNL1        0.0278
     40 H           8.2716    0.4195    0.0000 H       1  UNL1        0.0278
     41 H           7.8766    1.2023    0.0000 H       1  UNL1        0.0278
     42 H           3.5408    0.1300    0.0000 H       1  UNL1        0.0624
     43 H           2.5182    3.2772    0.0000 H       1  UNL1        0.0638
     44 H           2.1060   -0.1682    0.0000 H       1  UNL1        0.0618
     45 H           2.0868   -1.8338    0.0000 H       1  UNL1        0.0618
     46 H           1.9088    0.4637    0.0000 H       1  UNL1        0.0618
     47 H           1.3940    2.0480    0.0000 H       1  UNL1        0.0618
     48 H           6.6275   -4.1026    0.0000 H       1  UNL1        0.0278
     49 H           7.4411   -4.4294    0.0000 H       1  UNL1        0.0278
     50 H           7.7679   -3.6158    0.0000 H       1  UNL1        0.0278
     51 H           8.3652   -1.8333    0.0000 H       1  UNL1        0.0660
     52 H           9.2312   -1.6962    0.0000 H       1  UNL1        0.0660
     53 H           9.0940   -0.8302    0.0000 H       1  UNL1        0.0660
     54 H           7.7614    3.2543    0.0000 H       1  UNL1        0.0660
     55 H           8.2304    3.9951    0.0000 H       1  UNL1        0.0660
     56 H           7.4896    4.4641    0.0000 H       1  UNL1        0.0660
@<TRIPOS>BOND
     1     1    15    1
     2     1    31    1
     3     2    16    1
     4     2    32    1
     5     3     5    1
     6     3     7   ar
     7     3     8   ar
     8     4    11   ar
     9     4    14   ar
    10     4    33    1
    11     5     6   ar
    12     5    13   ar
    13     6    11   ar
    14     6    12   ar
    15     7     9   ar
    16     7    15   ar
    17     8    10   ar
    18     8    19   ar
    19     9    10   ar
    20     9    18   ar
    21    10    20   ar
    22    11    16   ar
    23    12    14   ar
    24    12    24   ar
    25    13    17   ar
    26    13    23    1
    27    14    25   ar
    28    15    22   ar
    29    16    17   ar
    30    17    34    1
    31    18    21   ar
    32    18    35    1
    33    19    26   ar
    34    19    36    1
    35    20    27   ar
    36    20    37    1
    37    21    22   ar
    38    21    30    1
    39    22    38    1
    40    23    39    1
    41    23    40    1
    42    23    41    1
    43    24    28   ar
    44    24    42    1
    45    25    29   ar
    46    25    43    1
    47    26    27   ar
    48    26    44    1
    49    27    45    1
    50    28    29   ar
    51    28    46    1
    52    29    47    1
    53    30    48    1
    54    30    49    1
    55    30    50    1
    56    31    51    1
    57    31    52    1
    58    31    53    1
    59    32    54    1
    60    32    55    1
    61    32    56    1
