@<TRIPOS>MOLECULE
IMPHY005055
 53 56 0 0 0
SMALL
GASTEIGER

@<TRIPOS>ATOM
      1 O           5.1350   -2.8813    0.0000 O.3     1  UNL1       -0.3313
      2 O           6.8671   -2.8813    0.0000 O.3     1  UNL1       -0.4608
      3 O           5.1350   -5.8813    0.0000 O.3     1  UNL1       -0.3864
      4 O           3.4030   -4.8813    0.0000 O.3     1  UNL1       -0.3865
      5 O           6.8671   -4.8813    0.0000 O.3     1  UNL1       -0.3829
      6 O           2.5369   -3.3813    0.0000 O.3     1  UNL1       -0.3924
      7 O           6.0010    2.6187    0.0000 O.2     1  UNL1       -0.4620
      8 O           8.5991    1.1187    0.0000 O.2     1  UNL1       -0.2864
      9 O           7.7452    5.6880    0.0000 O.3     1  UNL1       -0.4950
     10 C           5.1350   -4.8813    0.0000 C.3     1  UNL1        0.1152
     11 C           4.2690   -4.3813    0.0000 C.3     1  UNL1        0.1120
     12 C           4.2690   -3.3813    0.0000 C.3     1  UNL1        0.1140
     13 C           6.0010   -4.3813    0.0000 C.3     1  UNL1        0.1454
     14 C           6.0010   -3.3813    0.0000 C.3     1  UNL1        0.2308
     15 C           3.4030   -2.8813    0.0000 C.3     1  UNL1        0.0731
     16 C           6.8671   -1.8813    0.0000 C.ar    1  UNL1        0.1240
     17 C           7.7331   -1.3813    0.0000 C.ar    1  UNL1       -0.0192
     18 C           6.0010   -1.3813    0.0000 C.ar    1  UNL1       -0.0192
     19 C           6.8671    0.1187    0.0000 C.ar    1  UNL1       -0.0110
     20 C           7.7331   -0.3813    0.0000 C.ar    1  UNL1       -0.0504
     21 C           6.0010   -0.3813    0.0000 C.ar    1  UNL1       -0.0504
     22 C           6.8671    1.1187    0.0000 C.ar    1  UNL1        0.0643
     23 C           7.7331    1.6187    0.0000 C.ar    1  UNL1        0.2001
     24 C           7.7331    2.6187    0.0000 C.ar    1  UNL1        0.0648
     25 C           6.8671    3.1187    0.0000 C.ar    1  UNL1        0.1419
     26 C           6.0010    1.6187    0.0000 C.ar    1  UNL1        0.1038
     27 C           8.6431    3.1256    0.0000 C.ar    1  UNL1       -0.0439
     28 C           6.8510    4.1602    0.0000 C.ar    1  UNL1        0.0231
     29 C           7.7490    4.6880    0.0000 C.ar    1  UNL1        0.1236
     30 C           8.6511    4.1672    0.0000 C.ar    1  UNL1       -0.0190
     31 C           8.6093    6.1913    0.0000 C.3     1  UNL1        0.0788
     32 H           5.6720   -5.1913    0.0000 H       1  UNL1        0.0648
     33 H           4.2690   -5.0013    0.0000 H       1  UNL1        0.0647
     34 H           6.5380   -4.0713    0.0000 H       1  UNL1        0.0683
     35 H           4.2690   -2.7613    0.0000 H       1  UNL1        0.0647
     36 H           6.0010   -2.7613    0.0000 H       1  UNL1        0.1084
     37 H           3.8015   -2.4064    0.0000 H       1  UNL1        0.0584
     38 H           3.0044   -2.4064    0.0000 H       1  UNL1        0.0584
     39 H           5.6720   -6.1913    0.0000 H       1  UNL1        0.2100
     40 H           3.4030   -5.5013    0.0000 H       1  UNL1        0.2100
     41 H           7.4040   -4.5713    0.0000 H       1  UNL1        0.2102
     42 H           2.0000   -3.0713    0.0000 H       1  UNL1        0.2095
     43 H           8.2700   -1.6913    0.0000 H       1  UNL1        0.0654
     44 H           5.4641   -1.6913    0.0000 H       1  UNL1        0.0654
     45 H           8.2700   -0.0713    0.0000 H       1  UNL1        0.0625
     46 H           5.4641   -0.0713    0.0000 H       1  UNL1        0.0625
     47 H           5.4641    1.3087    0.0000 H       1  UNL1        0.1037
     48 H           9.1764    2.8094    0.0000 H       1  UNL1        0.0627
     49 H           6.3105    4.4640    0.0000 H       1  UNL1        0.0691
     50 H           9.1892    4.4751    0.0000 H       1  UNL1        0.0654
     51 H           8.9213    5.6556    0.0000 H       1  UNL1        0.0660
     52 H           9.1450    6.5034    0.0000 H       1  UNL1        0.0660
     53 H           8.2972    6.7270    0.0000 H       1  UNL1        0.0660
@<TRIPOS>BOND
     1     1    12    1
     2     1    14    1
     3    14     2    1
     4     2    16    1
     5    10     3    1
     6     3    39    1
     7    11     4    1
     8     4    40    1
     9    13     5    1
    10     5    41    1
    11     6    15    1
    12     6    42    1
    13     7    25   ar
    14     7    26   ar
    15     8    23    2
    16     9    29    1
    17     9    31    1
    18    10    11    1
    19    10    13    1
    20    10    32    1
    21    11    12    1
    22    11    33    1
    23    12    15    1
    24    12    35    1
    25    13    14    1
    26    13    34    1
    27    14    36    1
    28    15    37    1
    29    15    38    1
    30    16    17   ar
    31    16    18   ar
    32    17    20   ar
    33    17    43    1
    34    18    21   ar
    35    18    44    1
    36    19    20   ar
    37    19    21   ar
    38    19    22    1
    39    20    45    1
    40    21    46    1
    41    22    23   ar
    42    22    26   ar
    43    23    24   ar
    44    24    25   ar
    45    24    27   ar
    46    25    28   ar
    47    26    47    1
    48    27    30   ar
    49    27    48    1
    50    28    29   ar
    51    28    49    1
    52    29    30   ar
    53    30    50    1
    54    31    51    1
    55    31    52    1
    56    31    53    1
