@<TRIPOS>MOLECULE
IMPHY014597
 94 100 0 0 0
SMALL
GASTEIGER

@<TRIPOS>ATOM
      1 O           9.6256    0.6805    0.0000 O.3     1  UNL1       -0.3724
      2 O           6.0187   -1.4804    0.0000 O.3     1  UNL1       -0.3391
      3 O           6.8888   -2.4969    0.0000 O.3     1  UNL1       -0.4573
      4 O           7.7766    2.0345    0.0000 O.3     1  UNL1       -0.3883
      5 O          10.4286   -2.5106    0.0000 O.3     1  UNL1       -0.4602
      6 O           5.5304    0.2382    0.0000 O.3     1  UNL1       -0.3560
      7 O           3.3394    2.9454    0.0000 O.3     1  UNL1       -0.3314
      8 O          11.0625   -1.8210    0.0000 O.3     1  UNL1       -0.4674
      9 O          11.0425   -0.0890    0.0000 O.2     1  UNL1       -0.2500
     10 O           4.5392   -1.6952    0.0000 O.3     1  UNL1       -0.4642
     11 O           4.3552    0.0271    0.0000 O.2     1  UNL1       -0.2447
     12 O           5.5764    4.0552    0.0000 O.3     1  UNL1       -0.3776
     13 O           3.2113    4.8384    0.0000 O.2     1  UNL1       -0.4679
     14 O           7.7374   -4.0068    0.0000 O.2     1  UNL1       -0.2453
     15 O           9.5683   -4.0139    0.0000 O.2     1  UNL1       -0.2512
     16 C           7.7766   -0.9655    0.0000 C.3     1  UNL1        0.0469
     17 C           8.6426   -0.4655    0.0000 C.3     1  UNL1        0.0207
     18 C           6.9106   -0.4655    0.0000 C.3     1  UNL1        0.0472
     19 C           6.9106    0.5345    0.0000 C.3     1  UNL1        0.0289
     20 C           9.5526   -0.9723    0.0000 C.3     1  UNL1        0.1334
     21 C           8.6426    0.5345    0.0000 C.3     1  UNL1        0.0901
     22 C           7.7766    1.0345    0.0000 C.3     1  UNL1        0.0912
     23 C           7.7605   -2.0070    0.0000 C.3     1  UNL1        0.1153
     24 C           7.1095   -1.7025    0.0000 C.3     1  UNL1        0.0613
     25 C           5.9387   -0.6747    0.0000 C.3     1  UNL1        0.2722
     26 C           9.5606   -2.0139    0.0000 C.3     1  UNL1        0.1246
     27 C           8.6586   -2.5347    0.0000 C.3     1  UNL1        0.0234
     28 C          10.1394   -0.1702    0.0000 C.3     1  UNL1        0.0677
     29 C           6.4106    1.4006    0.0000 C.2     1  UNL1       -0.0328
     30 C           5.9709    0.8765    0.0000 C.3     1  UNL1       -0.0528
     31 C           4.9446    1.6594    0.0000 C.3     1  UNL1        0.0853
     32 C          10.5525   -0.9608    0.0000 C.2     1  UNL1        0.3193
     33 C           6.6694    2.3665    0.0000 C.2     1  UNL1       -0.0639
     34 C           5.2034    2.6253    0.0000 C.3     1  UNL1        0.0213
     35 C           3.8154    1.1767    0.0000 C.3     1  UNL1       -0.0129
     36 C           4.9444   -0.7809    0.0000 C.2     1  UNL1        0.3675
     37 C           4.5788    3.9855    0.0000 C.3     1  UNL1        0.1554
     38 C           3.5813    3.9157    0.0000 C.3     1  UNL1        0.2346
     39 C           7.5354    2.8665    0.0000 C.3     1  UNL1       -0.0431
     40 C           6.8772   -3.4969    0.0000 C.2     1  UNL1        0.3348
     41 C           4.8168    4.9507    0.0000 C.2     1  UNL1       -0.0119
     42 C          10.4324   -3.5106    0.0000 C.2     1  UNL1        0.3042
     43 C           3.9733    5.4767    0.0000 C.2     1  UNL1        0.0870
     44 C          12.0624   -1.8094    0.0000 C.3     1  UNL1        0.0817
     45 C           6.0055   -3.9868    0.0000 C.2     1  UNL1        0.0293
     46 C          11.3004   -4.0072    0.0000 C.3     1  UNL1        0.0332
     47 C           3.5449   -1.8014    0.0000 C.3     1  UNL1        0.0818
     48 C           5.1453   -3.4768    0.0000 C.3     1  UNL1       -0.0333
     49 C           5.9939   -4.9868    0.0000 C.2     1  UNL1       -0.0774
     50 C           5.1221   -5.4767    0.0000 C.3     1  UNL1       -0.0461
     51 H           8.6426   -1.3155    0.0000 H       1  UNL1        0.0347
     52 H           6.2493    0.0686    0.0000 H       1  UNL1        0.0375
     53 H           8.8015    1.3695    0.0000 H       1  UNL1        0.0625
     54 H           7.2396    1.3445    0.0000 H       1  UNL1        0.0628
     55 H           7.7545   -2.6270    0.0000 H       1  UNL1        0.0742
     56 H           7.6356   -2.0304    0.0000 H       1  UNL1        0.0568
     57 H           6.8800   -2.2785    0.0000 H       1  UNL1        0.0568
     58 H           9.5618   -2.6339    0.0000 H       1  UNL1        0.0747
     59 H           9.0559   -3.0107    0.0000 H       1  UNL1        0.0337
     60 H           8.2576   -3.0076    0.0000 H       1  UNL1        0.0337
     61 H          10.6233    0.2173    0.0000 H       1  UNL1        0.0572
     62 H          10.5873   -0.5990    0.0000 H       1  UNL1        0.0572
     63 H           5.7588    0.2939    0.0000 H       1  UNL1        0.0239
     64 H           5.3882    1.0886    0.0000 H       1  UNL1        0.0239
     65 H           6.1829    1.4592    0.0000 H       1  UNL1        0.0239
     66 H           4.7246    0.8383    0.0000 H       1  UNL1        0.0645
     67 H           5.4234    3.4463    0.0000 H       1  UNL1        0.0380
     68 H           3.8244    0.5568    0.0000 H       1  UNL1        0.0300
     69 H           3.2384    1.4036    0.0000 H       1  UNL1        0.0300
     70 H           8.3135    2.3445    0.0000 H       1  UNL1        0.2099
     71 H           4.9137    0.3019    0.0000 H       1  UNL1        0.2133
     72 H           2.7333    3.8564    0.0000 H       1  UNL1        0.1090
     73 H           7.2254    3.4034    0.0000 H       1  UNL1        0.0275
     74 H           8.0723    3.1765    0.0000 H       1  UNL1        0.0275
     75 H           7.8454    2.3295    0.0000 H       1  UNL1        0.0275
     76 H           5.3913    5.1839    0.0000 H       1  UNL1        0.0633
     77 H           5.8482    4.6125    0.0000 H       1  UNL1        0.2109
     78 H           3.9301    6.0952    0.0000 H       1  UNL1        0.1022
     79 H          12.0553   -1.1894    0.0000 H       1  UNL1        0.0661
     80 H          12.6824   -1.8022    0.0000 H       1  UNL1        0.0661
     81 H          12.0696   -2.4293    0.0000 H       1  UNL1        0.0661
     82 H          11.6083   -3.4691    0.0000 H       1  UNL1        0.0342
     83 H          11.8385   -4.3152    0.0000 H       1  UNL1        0.0342
     84 H          10.9925   -4.5454    0.0000 H       1  UNL1        0.0342
     85 H           3.6108   -2.4179    0.0000 H       1  UNL1        0.0661
     86 H           2.9284   -1.8673    0.0000 H       1  UNL1        0.0661
     87 H           3.4790   -1.1849    0.0000 H       1  UNL1        0.0661
     88 H           4.8291   -4.0102    0.0000 H       1  UNL1        0.0280
     89 H           4.6120   -3.1607    0.0000 H       1  UNL1        0.0280
     90 H           5.4615   -2.9435    0.0000 H       1  UNL1        0.0280
     91 H           6.5272   -5.3030    0.0000 H       1  UNL1        0.0574
     92 H           5.4259   -6.0172    0.0000 H       1  UNL1        0.0272
     93 H           4.5817   -5.7805    0.0000 H       1  UNL1        0.0272
     94 H           4.8184   -4.9362    0.0000 H       1  UNL1        0.0272
@<TRIPOS>BOND
     1     1    21    1
     2     1    28    1
     3     2    24    1
     4     2    25    1
     5    23     3    1
     6     3    40    1
     7    22     4    1
     8     4    70    1
     9    26     5    1
    10     5    42    1
    11    25     6    1
    12     6    71    1
    13     7    31    1
    14     7    38    1
    15     8    32    1
    16     8    44    1
    17     9    32    2
    18    10    36    1
    19    10    47    1
    20    11    36    2
    21    37    12    1
    22    12    77    1
    23    13    38    1
    24    13    43    1
    25    14    40    2
    26    15    42    2
    27    16    17    1
    28    16    18    1
    29    16    23    1
    30    16    24    1
    31    17    20    1
    32    17    21    1
    33    17    51    1
    34    18    19    1
    35    18    25    1
    36    18    52    1
    37    19    22    1
    38    19    29    1
    39    19    30    1
    40    20    26    1
    41    20    28    1
    42    20    32    1
    43    21    22    1
    44    21    53    1
    45    22    54    1
    46    23    27    1
    47    23    55    1
    48    24    56    1
    49    24    57    1
    50    25    36    1
    51    26    27    1
    52    26    58    1
    53    27    59    1
    54    27    60    1
    55    28    61    1
    56    28    62    1
    57    29    31    1
    58    29    33    2
    59    30    63    1
    60    30    64    1
    61    30    65    1
    62    31    35    1
    63    31    66    1
    64    33    34    1
    65    33    39    1
    66    34    35    1
    67    34    37    1
    68    34    67    1
    69    35    68    1
    70    35    69    1
    71    37    38    1
    72    37    41    1
    73    38    72    1
    74    39    73    1
    75    39    74    1
    76    39    75    1
    77    40    45    1
    78    41    43    2
    79    41    76    1
    80    42    46    1
    81    43    78    1
    82    44    79    1
    83    44    80    1
    84    44    81    1
    85    45    48    1
    86    45    49    2
    87    46    82    1
    88    46    83    1
    89    46    84    1
    90    47    85    1
    91    47    86    1
    92    47    87    1
    93    48    88    1
    94    48    89    1
    95    48    90    1
    96    49    50    1
    97    49    91    1
    98    50    92    1
    99    50    93    1
   100    50    94    1
