@<TRIPOS>MOLECULE
IMPHY005623
 91 95 0 0 0
SMALL
GASTEIGER

@<TRIPOS>ATOM
      1 O           6.0010    0.7051    0.0000 O.3     1  UNL1       -0.3480
      2 O           7.9419    3.4030    0.0000 O.3     1  UNL1       -0.4796
      3 O           4.2690    0.7051    0.0000 O.3     1  UNL1       -0.3431
      4 O          11.2852   -3.3651    0.0000 O.3     1  UNL1       -0.3405
      5 O          11.6424   -1.6702    0.0000 O.3     1  UNL1       -0.3487
      6 O           6.0010   -1.2949    0.0000 O.3     1  UNL1       -0.3841
      7 O           4.2690   -2.2949    0.0000 O.3     1  UNL1       -0.3864
      8 O           2.5369   -1.2949    0.0000 O.3     1  UNL1       -0.3866
      9 O          14.2207   -3.9837    0.0000 O.3     1  UNL1       -0.3864
     10 O          12.8850   -5.4723    0.0000 O.3     1  UNL1       -0.3865
     11 O          13.5994   -2.0827    0.0000 O.3     1  UNL1       -0.3841
     12 O          10.0890    3.0824    0.0000 O.3     1  UNL1       -0.4914
     13 O          11.2387   -6.0104    0.0000 O.3     1  UNL1       -0.3924
     14 O           3.5805    3.9082    0.0000 O.3     1  UNL1       -0.4914
     15 O           3.9929    5.8652    0.0000 O.3     1  UNL1       -0.5033
     16 C           6.8671    2.2051    0.0000 C.3     1  UNL1        0.0524
     17 C           6.9701    3.1938    0.0000 C.3     1  UNL1        0.1344
     18 C           7.7748    1.8000    0.0000 C.ar    1  UNL1        0.0073
     19 C           5.1350    0.2051    0.0000 C.3     1  UNL1        0.1878
     20 C           5.1350   -0.7949    0.0000 C.3     1  UNL1        0.1341
     21 C           6.0010    1.7051    0.0000 C.3     1  UNL1        0.0614
     22 C           4.2690   -1.2949    0.0000 C.3     1  UNL1        0.1140
     23 C           3.4030   -0.7949    0.0000 C.3     1  UNL1        0.1095
     24 C           3.4030    0.2051    0.0000 C.3     1  UNL1        0.0873
     25 C           8.4427    2.5443    0.0000 C.ar    1  UNL1        0.1664
     26 C          13.2422   -3.7775    0.0000 C.3     1  UNL1        0.1141
     27 C          12.5743   -4.5218    0.0000 C.3     1  UNL1        0.1119
     28 C          12.9315   -2.8270    0.0000 C.3     1  UNL1        0.1341
     29 C          11.5958   -4.3156    0.0000 C.3     1  UNL1        0.1130
     30 C          11.9530   -2.6208    0.0000 C.3     1  UNL1        0.1879
     31 C           6.2258    3.8617    0.0000 C.ar    1  UNL1       -0.0030
     32 C           8.0855    0.8495    0.0000 C.ar    1  UNL1       -0.0512
     33 C           9.0640    0.6432    0.0000 C.ar    1  UNL1       -0.0433
     34 C           9.4212    2.3381    0.0000 C.ar    1  UNL1        0.1621
     35 C           9.3747   -0.3073    0.0000 C.3     1  UNL1       -0.0255
     36 C           2.5369    0.7051    0.0000 C.3     1  UNL1       -0.0361
     37 C           9.7319    1.3875    0.0000 C.ar    1  UNL1       -0.0131
     38 C          10.3532   -0.5135    0.0000 C.3     1  UNL1       -0.0254
     39 C          10.9280   -5.0599    0.0000 C.3     1  UNL1        0.0730
     40 C          10.6638   -1.4640    0.0000 C.3     1  UNL1        0.0511
     41 C           5.2753    3.5510    0.0000 C.ar    1  UNL1       -0.0096
     42 C           6.4320    4.8402    0.0000 C.ar    1  UNL1       -0.0514
     43 C           4.5310    4.2188    0.0000 C.ar    1  UNL1        0.1616
     44 C           5.6877    5.5080    0.0000 C.ar    1  UNL1       -0.0161
     45 C           4.7372    5.1974    0.0000 C.ar    1  UNL1        0.1585
     46 C          11.0675    2.8762    0.0000 C.3     1  UNL1        0.0790
     47 C           2.8362    4.5760    0.0000 C.3     1  UNL1        0.0790
     48 H           6.8992    1.5859    0.0000 H       1  UNL1        0.0412
     49 H           7.1293    3.7930    0.0000 H       1  UNL1        0.0791
     50 H           5.1350    0.8251    0.0000 H       1  UNL1        0.0937
     51 H           5.1350   -1.4149    0.0000 H       1  UNL1        0.0671
     52 H           5.7890    2.2877    0.0000 H       1  UNL1        0.0568
     53 H           5.3905    1.5974    0.0000 H       1  UNL1        0.0568
     54 H           3.7320   -1.6049    0.0000 H       1  UNL1        0.0648
     55 H           2.8660   -0.4849    0.0000 H       1  UNL1        0.0646
     56 H           3.4030    0.8251    0.0000 H       1  UNL1        0.0621
     57 H          13.4348   -4.3668    0.0000 H       1  UNL1        0.0648
     58 H          12.1603   -4.9833    0.0000 H       1  UNL1        0.0647
     59 H          12.7389   -2.2376    0.0000 H       1  UNL1        0.0671
     60 H          10.9892   -4.1877    0.0000 H       1  UNL1        0.0647
     61 H          11.3463   -2.4929    0.0000 H       1  UNL1        0.0937
     62 H           7.6714    0.3880    0.0000 H       1  UNL1        0.0624
     63 H           8.7609   -0.3946    0.0000 H       1  UNL1        0.0314
     64 H           9.3541   -0.9269    0.0000 H       1  UNL1        0.0314
     65 H           2.8469    1.2420    0.0000 H       1  UNL1        0.0255
     66 H           2.0000    1.0151    0.0000 H       1  UNL1        0.0255
     67 H           2.2269    0.1682    0.0000 H       1  UNL1        0.0255
     68 H          10.3385    1.2597    0.0000 H       1  UNL1        0.0658
     69 H          10.9670   -0.4261    0.0000 H       1  UNL1        0.0290
     70 H          10.3738    0.1062    0.0000 H       1  UNL1        0.0290
     71 H          10.5454   -4.5720    0.0000 H       1  UNL1        0.0584
     72 H          10.3811   -5.3519    0.0000 H       1  UNL1        0.0584
     73 H          10.0500   -1.5514    0.0000 H       1  UNL1        0.0561
     74 H          10.6433   -2.0837    0.0000 H       1  UNL1        0.0561
     75 H           6.5380   -0.9849    0.0000 H       1  UNL1        0.2101
     76 H           3.7320   -2.6049    0.0000 H       1  UNL1        0.2100
     77 H           5.1474    2.9443    0.0000 H       1  UNL1        0.0659
     78 H           2.0000   -0.9849    0.0000 H       1  UNL1        0.2100
     79 H           7.0214    5.0328    0.0000 H       1  UNL1        0.0623
     80 H          14.4133   -4.5730    0.0000 H       1  UNL1        0.2100
     81 H          13.4917   -5.6002    0.0000 H       1  UNL1        0.2100
     82 H          14.2060   -2.2105    0.0000 H       1  UNL1        0.2101
     83 H           5.8156    6.1147    0.0000 H       1  UNL1        0.0655
     84 H          10.8246   -6.4719    0.0000 H       1  UNL1        0.2095
     85 H          10.9397    2.2695    0.0000 H       1  UNL1        0.0660
     86 H          11.6742    2.7483    0.0000 H       1  UNL1        0.0660
     87 H          11.1954    3.4828    0.0000 H       1  UNL1        0.0660
     88 H           4.1208    6.4719    0.0000 H       1  UNL1        0.2923
     89 H           3.2502    5.0375    0.0000 H       1  UNL1        0.0660
     90 H           2.3747    4.9901    0.0000 H       1  UNL1        0.0660
     91 H           2.4221    4.1146    0.0000 H       1  UNL1        0.0660
@<TRIPOS>BOND
     1    19     1    1
     2     1    21    1
     3     2    17    1
     4     2    25    1
     5     3    19    1
     6     3    24    1
     7     4    29    1
     8     4    30    1
     9    30     5    1
    10     5    40    1
    11    20     6    1
    12     6    75    1
    13    22     7    1
    14     7    76    1
    15    23     8    1
    16     8    78    1
    17    26     9    1
    18     9    80    1
    19    27    10    1
    20    10    81    1
    21    28    11    1
    22    11    82    1
    23    12    34    1
    24    12    46    1
    25    13    39    1
    26    13    84    1
    27    14    43    1
    28    14    47    1
    29    15    45    1
    30    15    88    1
    31    16    17    1
    32    16    18    1
    33    16    21    1
    34    16    48    1
    35    17    31    1
    36    17    49    1
    37    18    25   ar
    38    18    32   ar
    39    19    20    1
    40    19    50    1
    41    20    22    1
    42    20    51    1
    43    21    52    1
    44    21    53    1
    45    22    23    1
    46    22    54    1
    47    23    24    1
    48    23    55    1
    49    24    36    1
    50    24    56    1
    51    25    34   ar
    52    26    27    1
    53    26    28    1
    54    26    57    1
    55    27    29    1
    56    27    58    1
    57    28    30    1
    58    28    59    1
    59    29    39    1
    60    29    60    1
    61    30    61    1
    62    31    41   ar
    63    31    42   ar
    64    32    33   ar
    65    32    62    1
    66    33    35    1
    67    33    37   ar
    68    34    37   ar
    69    35    38    1
    70    35    63    1
    71    35    64    1
    72    36    65    1
    73    36    66    1
    74    36    67    1
    75    37    68    1
    76    38    40    1
    77    38    69    1
    78    38    70    1
    79    39    71    1
    80    39    72    1
    81    40    73    1
    82    40    74    1
    83    41    43   ar
    84    41    77    1
    85    42    44   ar
    86    42    79    1
    87    43    45   ar
    88    44    45   ar
    89    44    83    1
    90    46    85    1
    91    46    86    1
    92    46    87    1
    93    47    89    1
    94    47    90    1
    95    47    91    1
