@<TRIPOS>MOLECULE
IMPHY010432
 56 60 0 0 0
SMALL
GASTEIGER

@<TRIPOS>ATOM
      1 O          10.4786   -1.4311    0.0000 O.3     1  UNL1       -0.4796
      2 O           6.0682   -0.1264    0.0000 O.3     1  UNL1       -0.4828
      3 O          10.1214    1.8732    0.0000 O.3     1  UNL1       -0.3943
      4 O           8.6663   -2.6264    0.0000 O.3     1  UNL1       -0.5033
      5 O           6.0682    2.8736    0.0000 O.2     1  UNL1       -0.2917
      6 O          14.0622   -2.3584    0.0000 O.3     1  UNL1       -0.4914
      7 O          15.0622   -0.6264    0.0000 O.3     1  UNL1       -0.5033
      8 O           4.3198    2.9082    0.0000 O.3     1  UNL1       -0.5058
      9 O           2.5381   -0.1505    0.0000 O.3     1  UNL1       -0.5065
     10 C          10.4786    0.1784    0.0000 C.3     1  UNL1        0.0520
     11 C          11.0622   -0.6264    0.0000 C.3     1  UNL1        0.1344
     12 C           9.5323   -0.1264    0.0000 C.ar    1  UNL1        0.0074
     13 C           9.5323   -1.1264    0.0000 C.ar    1  UNL1        0.1662
     14 C          10.7892    1.1289    0.0000 C.3     1  UNL1        0.0548
     15 C           8.6663    0.3736    0.0000 C.ar    1  UNL1       -0.0477
     16 C           7.8003   -0.1264    0.0000 C.ar    1  UNL1       -0.0030
     17 C          12.0622   -0.6264    0.0000 C.ar    1  UNL1       -0.0030
     18 C           6.9343    0.3736    0.0000 C.3     1  UNL1        0.1323
     19 C           8.6663   -1.6264    0.0000 C.ar    1  UNL1        0.1591
     20 C           7.8003   -1.1264    0.0000 C.ar    1  UNL1       -0.0098
     21 C           6.9343    1.3736    0.0000 C.3     1  UNL1        0.0520
     22 C          12.5622   -1.4924    0.0000 C.ar    1  UNL1       -0.0096
     23 C          12.5622    0.2397    0.0000 C.ar    1  UNL1       -0.0514
     24 C           6.0682    1.8736    0.0000 C.2     1  UNL1        0.1740
     25 C           5.2022    0.3736    0.0000 C.ar    1  UNL1        0.1389
     26 C           5.2022    1.3736    0.0000 C.ar    1  UNL1        0.1007
     27 C          13.5622   -1.4924    0.0000 C.ar    1  UNL1        0.1616
     28 C          13.5622    0.2397    0.0000 C.ar    1  UNL1       -0.0161
     29 C          14.0622   -0.6264    0.0000 C.ar    1  UNL1        0.1585
     30 C           4.3083    1.9083    0.0000 C.ar    1  UNL1        0.1343
     31 C           4.3083   -0.1610    0.0000 C.ar    1  UNL1        0.0225
     32 C           3.4022    0.3528    0.0000 C.ar    1  UNL1        0.1238
     33 C           3.4022    1.3945    0.0000 C.ar    1  UNL1        0.0222
     34 C          13.5622   -3.2244    0.0000 C.3     1  UNL1        0.0790
     35 H          10.0411    0.6177    0.0000 H       1  UNL1        0.0412
     36 H          11.3439   -1.1787    0.0000 H       1  UNL1        0.0791
     37 H          11.3362    0.8369    0.0000 H       1  UNL1        0.0564
     38 H          11.1718    1.6168    0.0000 H       1  UNL1        0.0564
     39 H           8.6663    0.9936    0.0000 H       1  UNL1        0.0625
     40 H           6.9343   -0.2464    0.0000 H       1  UNL1        0.0789
     41 H           7.2634   -1.4364    0.0000 H       1  UNL1        0.0659
     42 H           7.5449    1.2660    0.0000 H       1  UNL1        0.0385
     43 H           7.1463    1.9563    0.0000 H       1  UNL1        0.0385
     44 H          12.2522   -2.0293    0.0000 H       1  UNL1        0.0659
     45 H          12.2522    0.7766    0.0000 H       1  UNL1        0.0623
     46 H          10.3140    2.4625    0.0000 H       1  UNL1        0.2094
     47 H          13.8722    0.7766    0.0000 H       1  UNL1        0.0655
     48 H           8.1294   -2.9364    0.0000 H       1  UNL1        0.2923
     49 H           4.3154   -0.7810    0.0000 H       1  UNL1        0.0691
     50 H           2.8665    1.7065    0.0000 H       1  UNL1        0.0691
     51 H          15.3722   -0.0894    0.0000 H       1  UNL1        0.2923
     52 H           3.7865    3.2244    0.0000 H       1  UNL1        0.2922
     53 H          13.0252   -2.9144    0.0000 H       1  UNL1        0.0660
     54 H          13.2522   -3.7614    0.0000 H       1  UNL1        0.0660
     55 H          14.0991   -3.5344    0.0000 H       1  UNL1        0.0660
     56 H           2.0000    0.1574    0.0000 H       1  UNL1        0.2921
@<TRIPOS>BOND
     1     1    11    1
     2     1    13    1
     3     2    18    1
     4     2    25    1
     5     3    14    1
     6     3    46    1
     7     4    19    1
     8     4    48    1
     9     5    24    2
    10     6    27    1
    11     6    34    1
    12     7    29    1
    13     7    51    1
    14     8    30    1
    15     8    52    1
    16     9    32    1
    17     9    56    1
    18    10    11    1
    19    10    12    1
    20    10    14    1
    21    10    35    1
    22    11    17    1
    23    11    36    1
    24    12    13   ar
    25    12    15   ar
    26    13    19   ar
    27    14    37    1
    28    14    38    1
    29    15    16   ar
    30    15    39    1
    31    18    16    1
    32    16    20   ar
    33    17    22   ar
    34    17    23   ar
    35    18    21    1
    36    18    40    1
    37    19    20   ar
    38    20    41    1
    39    21    24    1
    40    21    42    1
    41    21    43    1
    42    22    27   ar
    43    22    44    1
    44    23    28   ar
    45    23    45    1
    46    24    26    1
    47    25    26   ar
    48    25    31   ar
    49    26    30   ar
    50    27    29   ar
    51    28    29   ar
    52    28    47    1
    53    30    33   ar
    54    31    32   ar
    55    31    49    1
    56    32    33   ar
    57    33    50    1
    58    34    53    1
    59    34    54    1
    60    34    55    1
