@<TRIPOS>MOLECULE
IMPHY012365
 35 37 0 0 0
SMALL
GASTEIGER

@<TRIPOS>ATOM
      1 O           3.7230   -1.0372    0.0000 O.3     1  UNL1       -0.4565
      2 O           4.5447    2.1282    0.0000 O.3     1  UNL1       -0.3907
      3 O           8.0559   -1.1173    0.0000 O.2     1  UNL1       -0.2876
      4 O           2.0000   -0.6050    0.0000 O.2     1  UNL1       -0.2453
      5 C           4.5777   -0.5295    0.0000 C.3     1  UNL1        0.1232
      6 C           4.3551    0.4454    0.0000 C.3     1  UNL1        0.0545
      7 C           5.4786   -0.9634    0.0000 C.3     1  UNL1        0.0466
      8 C           4.9786    1.2272    0.0000 C.3     1  UNL1        0.0693
      9 C           6.3796   -0.5295    0.0000 C.2     1  UNL1        0.0089
     10 C           5.9786    1.2272    0.0000 C.3     1  UNL1       -0.0045
     11 C           6.6021    0.4454    0.0000 C.2     1  UNL1       -0.0627
     12 C           5.6146   -1.9482    0.0000 C.2     1  UNL1       -0.0580
     13 C           3.3648    0.5319    0.0000 C.2     1  UNL1        0.0386
     14 C           7.0647   -1.2498    0.0000 C.2     1  UNL1        0.1827
     15 C           2.9749   -0.3825    0.0000 C.2     1  UNL1        0.3354
     16 C           6.5929   -2.1248    0.0000 C.2     1  UNL1       -0.0150
     17 C           7.5770    0.6679    0.0000 C.3     1  UNL1       -0.0430
     18 C           4.8930   -2.6405    0.0000 C.3     1  UNL1       -0.0427
     19 C           2.8504    1.3895    0.0000 C.2     1  UNL1       -0.0882
     20 H           4.6147   -1.3787    0.0000 H       1  UNL1        0.0750
     21 H           5.1838    0.2563    0.0000 H       1  UNL1        0.0413
     22 H           4.7916   -1.4639    0.0000 H       1  UNL1        0.0432
     23 H           4.3625    1.2966    0.0000 H       1  UNL1        0.0604
     24 H           6.5372    1.4962    0.0000 H       1  UNL1        0.0335
     25 H           5.8407    1.8317    0.0000 H       1  UNL1        0.0335
     26 H           6.8619   -2.6834    0.0000 H       1  UNL1        0.0655
     27 H           7.7150    0.0635    0.0000 H       1  UNL1        0.0275
     28 H           8.1815    0.8059    0.0000 H       1  UNL1        0.0275
     29 H           7.4391    1.2724    0.0000 H       1  UNL1        0.0275
     30 H           4.4638   -2.1931    0.0000 H       1  UNL1        0.0275
     31 H           4.4456   -3.0697    0.0000 H       1  UNL1        0.0275
     32 H           5.3223   -3.0878    0.0000 H       1  UNL1        0.0275
     33 H           4.8940    2.6405    0.0000 H       1  UNL1        0.2098
     34 H           3.1514    1.9315    0.0000 H       1  UNL1        0.0540
     35 H           2.2305    1.3792    0.0000 H       1  UNL1        0.0540
@<TRIPOS>BOND
     1     1     5    1
     2     1    15    1
     3     8     2    1
     4     2    33    1
     5     3    14    2
     6     4    15    2
     7     5     6    1
     8     5     7    1
     9     5    20    1
    10     6     8    1
    11     6    13    1
    12     6    21    1
    13     7     9    1
    14     7    12    1
    15     7    22    1
    16     8    10    1
    17     8    23    1
    18     9    11    2
    19     9    14    1
    20    10    11    1
    21    10    24    1
    22    10    25    1
    23    11    17    1
    24    12    16    2
    25    12    18    1
    26    13    15    1
    27    13    19    2
    28    14    16    1
    29    16    26    1
    30    17    27    1
    31    17    28    1
    32    17    29    1
    33    18    30    1
    34    18    31    1
    35    18    32    1
    36    19    34    1
    37    19    35    1
