@<TRIPOS>MOLECULE
IMPHY011824
 132 135 0 0 0
SMALL
GASTEIGER

@<TRIPOS>ATOM
      1 O           4.2690    5.5000    0.0000 O.3     1  UNL1       -0.3405
      2 O          22.4555   -7.0000    0.0000 O.3     1  UNL1       -0.3405
      3 O           7.7331    6.5000    0.0000 O.3     1  UNL1       -0.3312
      4 O          18.1254   -6.5000    0.0000 O.3     1  UNL1       -0.3312
      5 O           6.0010    5.5000    0.0000 O.3     1  UNL1       -0.3460
      6 O          20.7235   -7.0000    0.0000 O.3     1  UNL1       -0.3460
      7 O           6.0010    8.5000    0.0000 O.3     1  UNL1       -0.3865
      8 O          19.8574   -8.5000    0.0000 O.3     1  UNL1       -0.3865
      9 O           6.0010    3.5000    0.0000 O.3     1  UNL1       -0.3841
     10 O          20.7235   -5.0000    0.0000 O.3     1  UNL1       -0.3841
     11 O           4.2690    2.5000    0.0000 O.3     1  UNL1       -0.3864
     12 O          22.4555   -4.0000    0.0000 O.3     1  UNL1       -0.3864
     13 O           7.7331    9.5000    0.0000 O.3     1  UNL1       -0.3864
     14 O          18.1254   -9.5000    0.0000 O.3     1  UNL1       -0.3864
     15 O           2.5369    3.5000    0.0000 O.3     1  UNL1       -0.3865
     16 O          24.1876   -5.0000    0.0000 O.3     1  UNL1       -0.3865
     17 O           9.4651    8.5000    0.0000 O.3     1  UNL1       -0.3829
     18 O          16.3933   -8.5000    0.0000 O.3     1  UNL1       -0.3829
     19 O           9.4651    6.5000    0.0000 O.3     1  UNL1       -0.4290
     20 O          16.3933   -6.5000    0.0000 O.3     1  UNL1       -0.4290
     21 O           2.5369    6.5000    0.0000 O.3     1  UNL1       -0.3924
     22 O          24.1876   -8.0000    0.0000 O.3     1  UNL1       -0.3924
     23 O           8.5991    5.0000    0.0000 O.2     1  UNL1       -0.2452
     24 O          17.2594   -5.0000    0.0000 O.2     1  UNL1       -0.2452
     25 C           6.8671    7.0000    0.0000 C.3     1  UNL1        0.1144
     26 C          18.9914   -7.0000    0.0000 C.3     1  UNL1        0.1144
     27 C           6.8671    8.0000    0.0000 C.3     1  UNL1        0.1120
     28 C          18.9914   -8.0000    0.0000 C.3     1  UNL1        0.1120
     29 C           5.1350    4.0000    0.0000 C.3     1  UNL1        0.1341
     30 C          21.5895   -5.5000    0.0000 C.3     1  UNL1        0.1341
     31 C           4.2690    3.5000    0.0000 C.3     1  UNL1        0.1141
     32 C          22.4555   -5.0000    0.0000 C.3     1  UNL1        0.1141
     33 C           7.7331    8.5000    0.0000 C.3     1  UNL1        0.1152
     34 C          18.1254   -8.5000    0.0000 C.3     1  UNL1        0.1152
     35 C           5.1350    5.0000    0.0000 C.3     1  UNL1        0.1880
     36 C          21.5895   -6.5000    0.0000 C.3     1  UNL1        0.1880
     37 C           3.4030    4.0000    0.0000 C.3     1  UNL1        0.1119
     38 C          23.3215   -5.5000    0.0000 C.3     1  UNL1        0.1119
     39 C           3.4030    5.0000    0.0000 C.3     1  UNL1        0.1130
     40 C          23.3215   -6.5000    0.0000 C.3     1  UNL1        0.1130
     41 C           8.5991    8.0000    0.0000 C.3     1  UNL1        0.1455
     42 C          17.2594   -8.0000    0.0000 C.3     1  UNL1        0.1455
     43 C           6.0010    6.5000    0.0000 C.3     1  UNL1        0.0796
     44 C          19.8574   -6.5000    0.0000 C.3     1  UNL1        0.0796
     45 C           8.5991    7.0000    0.0000 C.3     1  UNL1        0.2341
     46 C          17.2594   -7.0000    0.0000 C.3     1  UNL1        0.2341
     47 C           2.5369    5.5000    0.0000 C.3     1  UNL1        0.0730
     48 C          24.1876   -7.0000    0.0000 C.3     1  UNL1        0.0730
     49 C           9.4651    5.5000    0.0000 C.2     1  UNL1        0.3371
     50 C          16.3933   -5.5000    0.0000 C.2     1  UNL1        0.3371
     51 C          10.3312    5.0000    0.0000 C.2     1  UNL1        0.0336
     52 C          15.5273   -5.0000    0.0000 C.2     1  UNL1        0.0336
     53 C          11.1972    5.5000    0.0000 C.3     1  UNL1       -0.0329
     54 C          14.6613   -5.5000    0.0000 C.3     1  UNL1       -0.0329
     55 C          10.3312    4.0000    0.0000 C.2     1  UNL1       -0.0521
     56 C          15.5273   -4.0000    0.0000 C.2     1  UNL1       -0.0521
     57 C          11.1972    3.5000    0.0000 C.2     1  UNL1       -0.0610
     58 C          14.6613   -3.5000    0.0000 C.2     1  UNL1       -0.0610
     59 C          11.1972    2.5000    0.0000 C.2     1  UNL1       -0.0588
     60 C          14.6613   -2.5000    0.0000 C.2     1  UNL1       -0.0588
     61 C          12.0632    2.0000    0.0000 C.2     1  UNL1       -0.0504
     62 C          13.7953   -2.0000    0.0000 C.2     1  UNL1       -0.0504
     63 C          12.9292    2.5000    0.0000 C.3     1  UNL1       -0.0397
     64 C          12.9292   -2.5000    0.0000 C.3     1  UNL1       -0.0397
     65 C          12.0632    1.0000    0.0000 C.2     1  UNL1       -0.0588
     66 C          13.7953   -1.0000    0.0000 C.2     1  UNL1       -0.0588
     67 C          12.9292    0.5000    0.0000 C.2     1  UNL1       -0.0615
     68 C          12.9292   -0.5000    0.0000 C.2     1  UNL1       -0.0615
     69 H           6.8670    6.2500    0.0000 H       1  UNL1        0.0647
     70 H          18.3419   -7.3750    0.0000 H       1  UNL1        0.0647
     71 H           6.8670    8.7500    0.0000 H       1  UNL1        0.0647
     72 H          18.3419   -7.6250    0.0000 H       1  UNL1        0.0647
     73 H           5.7845    4.3750    0.0000 H       1  UNL1        0.0671
     74 H          22.2390   -5.8750    0.0000 H       1  UNL1        0.0671
     75 H           3.6195    3.1250    0.0000 H       1  UNL1        0.0648
     76 H          21.8060   -4.6250    0.0000 H       1  UNL1        0.0648
     77 H           8.3826    8.8750    0.0000 H       1  UNL1        0.0648
     78 H          18.7749   -8.8750    0.0000 H       1  UNL1        0.0648
     79 H           5.7845    4.6250    0.0000 H       1  UNL1        0.0937
     80 H          22.2390   -6.1250    0.0000 H       1  UNL1        0.0937
     81 H           3.4029    3.2500    0.0000 H       1  UNL1        0.0647
     82 H          23.3216   -4.7500    0.0000 H       1  UNL1        0.0647
     83 H           3.4029    5.7500    0.0000 H       1  UNL1        0.0647
     84 H          23.3216   -7.2500    0.0000 H       1  UNL1        0.0647
     85 H           9.2486    7.6250    0.0000 H       1  UNL1        0.0683
     86 H          17.2593   -8.7500    0.0000 H       1  UNL1        0.0683
     87 H           5.2510    6.5000    0.0000 H       1  UNL1        0.0587
     88 H           5.6260    7.1495    0.0000 H       1  UNL1        0.0587
     89 H          19.4823   -5.8505    0.0000 H       1  UNL1        0.0587
     90 H          20.2323   -5.8504    0.0000 H       1  UNL1        0.0587
     91 H           7.9496    7.3750    0.0000 H       1  UNL1        0.1085
     92 H          17.2593   -6.2500    0.0000 H       1  UNL1        0.1085
     93 H           2.1619    4.8505    0.0000 H       1  UNL1        0.0584
     94 H           1.7869    5.5000    0.0000 H       1  UNL1        0.0584
     95 H          24.5626   -6.3505    0.0000 H       1  UNL1        0.0584
     96 H          24.9376   -7.0000    0.0000 H       1  UNL1        0.0584
     97 H           5.3515    8.8750    0.0000 H       1  UNL1        0.2100
     98 H          20.5069   -8.8750    0.0000 H       1  UNL1        0.2100
     99 H           6.6505    3.1250    0.0000 H       1  UNL1        0.2101
    100 H          20.0740   -4.6250    0.0000 H       1  UNL1        0.2101
    101 H           4.2690    1.7500    0.0000 H       1  UNL1        0.2100
    102 H          22.4555   -3.2500    0.0000 H       1  UNL1        0.2100
    103 H           7.7331   10.2500    0.0000 H       1  UNL1        0.2100
    104 H          18.1254  -10.2500    0.0000 H       1  UNL1        0.2100
    105 H           1.8874    3.1250    0.0000 H       1  UNL1        0.2100
    106 H          24.8371   -4.6250    0.0000 H       1  UNL1        0.2100
    107 H          10.1146    8.8750    0.0000 H       1  UNL1        0.2102
    108 H          15.7438   -8.8750    0.0000 H       1  UNL1        0.2102
    109 H           2.5369    7.2500    0.0000 H       1  UNL1        0.2095
    110 H          24.1876   -8.7500    0.0000 H       1  UNL1        0.2095
    111 H          11.8467    5.1250    0.0000 H       1  UNL1        0.0280
    112 H          11.8467    5.8750    0.0000 H       1  UNL1        0.0280
    113 H          11.1972    6.2500    0.0000 H       1  UNL1        0.0280
    114 H          14.0118   -5.1250    0.0000 H       1  UNL1        0.0280
    115 H          14.0118   -5.8750    0.0000 H       1  UNL1        0.0280
    116 H          14.6613   -6.2500    0.0000 H       1  UNL1        0.0280
    117 H           9.6817    3.6250    0.0000 H       1  UNL1        0.0622
    118 H          16.1768   -3.6250    0.0000 H       1  UNL1        0.0622
    119 H          11.8467    3.8750    0.0000 H       1  UNL1        0.0618
    120 H          14.0118   -3.8750    0.0000 H       1  UNL1        0.0618
    121 H          10.5477    2.1250    0.0000 H       1  UNL1        0.0620
    122 H          15.3108   -2.1250    0.0000 H       1  UNL1        0.0620
    123 H          13.5787    2.1250    0.0000 H       1  UNL1        0.0278
    124 H          13.5787    2.8750    0.0000 H       1  UNL1        0.0278
    125 H          12.9292    3.2500    0.0000 H       1  UNL1        0.0278
    126 H          12.2797   -2.1250    0.0000 H       1  UNL1        0.0278
    127 H          12.2797   -2.8750    0.0000 H       1  UNL1        0.0278
    128 H          12.9292   -3.2500    0.0000 H       1  UNL1        0.0278
    129 H          11.4137    0.6250    0.0000 H       1  UNL1        0.0620
    130 H          14.4448   -0.6250    0.0000 H       1  UNL1        0.0620
    131 H          13.5787    0.8750    0.0000 H       1  UNL1        0.0618
    132 H          12.2797   -0.8750    0.0000 H       1  UNL1        0.0618
@<TRIPOS>BOND
     1     1    35    1
     2     1    39    1
     3     2    36    1
     4     2    40    1
     5     3    25    1
     6     3    45    1
     7     4    26    1
     8     4    46    1
     9     5    35    1
    10     5    43    1
    11     6    36    1
    12     6    44    1
    13     7    27    1
    14     7    97    1
    15     8    28    1
    16     8    98    1
    17     9    29    1
    18     9    99    1
    19    10    30    1
    20    10   100    1
    21    11    31    1
    22    11   101    1
    23    12    32    1
    24    12   102    1
    25    13    33    1
    26    13   103    1
    27    14    34    1
    28    14   104    1
    29    15    37    1
    30    15   105    1
    31    16    38    1
    32    16   106    1
    33    17    41    1
    34    17   107    1
    35    18    42    1
    36    18   108    1
    37    19    45    1
    38    19    49    1
    39    20    46    1
    40    20    50    1
    41    21    47    1
    42    21   109    1
    43    22    48    1
    44    22   110    1
    45    23    49    2
    46    24    50    2
    47    25    27    1
    48    25    43    1
    49    25    69    1
    50    26    28    1
    51    26    44    1
    52    26    70    1
    53    27    33    1
    54    27    71    1
    55    28    34    1
    56    28    72    1
    57    29    31    1
    58    29    35    1
    59    29    73    1
    60    30    32    1
    61    30    36    1
    62    30    74    1
    63    31    37    1
    64    31    75    1
    65    32    38    1
    66    32    76    1
    67    33    41    1
    68    33    77    1
    69    34    42    1
    70    34    78    1
    71    35    79    1
    72    36    80    1
    73    37    39    1
    74    37    81    1
    75    38    40    1
    76    38    82    1
    77    39    47    1
    78    39    83    1
    79    40    48    1
    80    40    84    1
    81    41    45    1
    82    41    85    1
    83    42    46    1
    84    42    86    1
    85    43    87    1
    86    43    88    1
    87    44    89    1
    88    44    90    1
    89    45    91    1
    90    46    92    1
    91    47    93    1
    92    47    94    1
    93    48    95    1
    94    48    96    1
    95    49    51    1
    96    50    52    1
    97    51    53    1
    98    51    55    2
    99    52    54    1
   100    52    56    2
   101    53   111    1
   102    53   112    1
   103    53   113    1
   104    54   114    1
   105    54   115    1
   106    54   116    1
   107    55    57    1
   108    55   117    1
   109    56    58    1
   110    56   118    1
   111    57    59    2
   112    57   119    1
   113    58    60    2
   114    58   120    1
   115    59    61    1
   116    59   121    1
   117    60    62    1
   118    60   122    1
   119    61    63    1
   120    61    65    2
   121    62    64    1
   122    62    66    2
   123    63   123    1
   124    63   124    1
   125    63   125    1
   126    64   126    1
   127    64   127    1
   128    64   128    1
   129    65    67    1
   130    65   129    1
   131    66    68    1
   132    66   130    1
   133    67    68    2
   134    67   131    1
   135    68   132    1
