@<TRIPOS>MOLECULE
IMPHY015245
 37 37 0 0 0
SMALL
GASTEIGER

@<TRIPOS>ATOM
      1 CL          6.3301   -1.5670    0.0000 Cl      1  UNL1       -0.0835
      2 O           2.8660    0.4330    0.0000 O.3     1  UNL1       -0.5062
      3 C           4.5981    1.4330    0.0000 C.3     1  UNL1       -0.0092
      4 C           2.8660   -1.5670    0.0000 C.3     1  UNL1       -0.0092
      5 C           4.5981    0.4330    0.0000 C.ar    1  UNL1        0.0011
      6 C           3.7320   -1.0670    0.0000 C.ar    1  UNL1        0.0011
      7 C           3.7320   -0.0670    0.0000 C.ar    1  UNL1        0.1243
      8 C           4.5981    2.4330    0.0000 C.3     1  UNL1       -0.0559
      9 C           5.5981    1.4330    0.0000 C.3     1  UNL1       -0.0559
     10 C           3.5981    1.4330    0.0000 C.3     1  UNL1       -0.0559
     11 C           2.0000   -2.0670    0.0000 C.3     1  UNL1       -0.0559
     12 C           3.3660   -2.4330    0.0000 C.3     1  UNL1       -0.0559
     13 C           2.3660   -0.7010    0.0000 C.3     1  UNL1       -0.0559
     14 C           5.4641   -0.0670    0.0000 C.ar    1  UNL1       -0.0362
     15 C           4.5981   -1.5670    0.0000 C.ar    1  UNL1       -0.0362
     16 C           5.4641   -1.0670    0.0000 C.ar    1  UNL1        0.0418
     17 H           5.2181    2.4330    0.0000 H       1  UNL1        0.0238
     18 H           4.5981    3.0530    0.0000 H       1  UNL1        0.0238
     19 H           3.9781    2.4330    0.0000 H       1  UNL1        0.0238
     20 H           5.5981    0.8130    0.0000 H       1  UNL1        0.0238
     21 H           6.2181    1.4330    0.0000 H       1  UNL1        0.0238
     22 H           5.5981    2.0530    0.0000 H       1  UNL1        0.0238
     23 H           3.5981    2.0530    0.0000 H       1  UNL1        0.0238
     24 H           2.9781    1.4330    0.0000 H       1  UNL1        0.0238
     25 H           3.5981    0.8130    0.0000 H       1  UNL1        0.0238
     26 H           1.6900   -1.5300    0.0000 H       1  UNL1        0.0238
     27 H           1.4631   -2.3770    0.0000 H       1  UNL1        0.0238
     28 H           2.3100   -2.6039    0.0000 H       1  UNL1        0.0238
     29 H           2.8291   -2.7430    0.0000 H       1  UNL1        0.0238
     30 H           3.6760   -2.9700    0.0000 H       1  UNL1        0.0238
     31 H           3.9030   -2.1230    0.0000 H       1  UNL1        0.0238
     32 H           2.9030   -0.3910    0.0000 H       1  UNL1        0.0238
     33 H           2.0560   -0.1640    0.0000 H       1  UNL1        0.0238
     34 H           1.8291   -1.0110    0.0000 H       1  UNL1        0.0238
     35 H           6.0010    0.2430    0.0000 H       1  UNL1        0.0636
     36 H           4.5981   -2.1870    0.0000 H       1  UNL1        0.0636
     37 H           2.8660    1.0530    0.0000 H       1  UNL1        0.2922
@<TRIPOS>BOND
     1     1    16    1
     2     2     7    1
     3     2    37    1
     4     3     5    1
     5     3     8    1
     6     3     9    1
     7     3    10    1
     8     4     6    1
     9     4    11    1
    10     4    12    1
    11     4    13    1
    12     5     7   ar
    13     5    14   ar
    14     6     7   ar
    15     6    15   ar
    16     8    17    1
    17     8    18    1
    18     8    19    1
    19     9    20    1
    20     9    21    1
    21     9    22    1
    22    10    23    1
    23    10    24    1
    24    10    25    1
    25    11    26    1
    26    11    27    1
    27    11    28    1
    28    12    29    1
    29    12    30    1
    30    12    31    1
    31    13    32    1
    32    13    33    1
    33    13    34    1
    34    14    16   ar
    35    14    35    1
    36    15    16   ar
    37    15    36    1
