@<TRIPOS>MOLECULE
IMPHY013966
 50 52 0 0 0
SMALL
GASTEIGER

@<TRIPOS>ATOM
      1 O           6.3981   -1.6293    0.0000 O.2     1  UNL1       -0.2920
      2 O           7.3180    1.9158    0.0000 O.3     1  UNL1       -0.5065
      3 C           3.8000   -1.1293    0.0000 C.3     1  UNL1       -0.0195
      4 C           3.8000   -0.1293    0.0000 C.3     1  UNL1       -0.0027
      5 C           2.9061   -1.6640    0.0000 C.3     1  UNL1       -0.0309
      6 C           2.9061    0.4053    0.0000 C.3     1  UNL1       -0.0433
      7 C           2.0000   -1.1502    0.0000 C.3     1  UNL1       -0.0476
      8 C           2.0000   -0.1085    0.0000 C.3     1  UNL1       -0.0518
      9 C           4.6660   -1.6293    0.0000 C.3     1  UNL1        0.0146
     10 C           4.6660    0.3707    0.0000 C.ar    1  UNL1       -0.0302
     11 C           3.8000    0.8707    0.0000 C.3     1  UNL1       -0.0552
     12 C           2.4161   -2.5358    0.0000 C.3     1  UNL1       -0.0595
     13 C           3.4160   -2.5242    0.0000 C.3     1  UNL1       -0.0595
     14 C           5.5321   -0.1293    0.0000 C.ar    1  UNL1        0.0280
     15 C           5.5321   -1.1293    0.0000 C.2     1  UNL1        0.1641
     16 C           4.6500    1.4122    0.0000 C.ar    1  UNL1       -0.0539
     17 C           6.4421    0.3775    0.0000 C.ar    1  UNL1        0.0073
     18 C           7.3022   -0.1325    0.0000 C.3     1  UNL1       -0.0174
     19 C           5.5480    1.9399    0.0000 C.ar    1  UNL1       -0.0196
     20 C           6.4501    1.4191    0.0000 C.ar    1  UNL1        0.1209
     21 C           8.1740    0.3575    0.0000 C.3     1  UNL1       -0.0585
     22 C           7.2907   -1.1324    0.0000 C.3     1  UNL1       -0.0585
     23 H           3.8066   -1.9793    0.0000 H       1  UNL1        0.0319
     24 H           3.3107    0.8751    0.0000 H       1  UNL1        0.0274
     25 H           2.5124    0.8843    0.0000 H       1  UNL1        0.0274
     26 H           1.3891   -1.0441    0.0000 H       1  UNL1        0.0271
     27 H           1.7909   -1.7338    0.0000 H       1  UNL1        0.0271
     28 H           1.7909    0.4752    0.0000 H       1  UNL1        0.0266
     29 H           1.3891   -0.2146    0.0000 H       1  UNL1        0.0266
     30 H           4.2675   -2.1043    0.0000 H       1  UNL1        0.0348
     31 H           5.0646   -2.1043    0.0000 H       1  UNL1        0.0348
     32 H           4.4200    0.8707    0.0000 H       1  UNL1        0.0238
     33 H           3.8000    1.4907    0.0000 H       1  UNL1        0.0238
     34 H           3.1800    0.8707    0.0000 H       1  UNL1        0.0238
     35 H           1.8756   -2.2320    0.0000 H       1  UNL1        0.0235
     36 H           2.1123   -3.0762    0.0000 H       1  UNL1        0.0235
     37 H           2.9566   -2.8395    0.0000 H       1  UNL1        0.0235
     38 H           2.8827   -2.8404    0.0000 H       1  UNL1        0.0235
     39 H           3.7322   -3.0575    0.0000 H       1  UNL1        0.0235
     40 H           3.9494   -2.2080    0.0000 H       1  UNL1        0.0235
     41 H           4.1095    1.7159    0.0000 H       1  UNL1        0.0622
     42 H           6.7618   -0.4362    0.0000 H       1  UNL1        0.0345
     43 H           5.5456    2.5599    0.0000 H       1  UNL1        0.0654
     44 H           8.4778   -0.1830    0.0000 H       1  UNL1        0.0235
     45 H           8.7145    0.6612    0.0000 H       1  UNL1        0.0235
     46 H           7.8702    0.8980    0.0000 H       1  UNL1        0.0235
     47 H           6.6707   -1.1252    0.0000 H       1  UNL1        0.0235
     48 H           7.2835   -1.7524    0.0000 H       1  UNL1        0.0235
     49 H           7.9106   -1.1396    0.0000 H       1  UNL1        0.0235
     50 H           7.3204    2.5358    0.0000 H       1  UNL1        0.2921
@<TRIPOS>BOND
     1     1    15    2
     2     2    20    1
     3     2    50    1
     4     3     4    1
     5     3     5    1
     6     3     9    1
     7     3    23    1
     8     4     6    1
     9     4    10    1
    10     4    11    1
    11     5     7    1
    12     5    12    1
    13     5    13    1
    14     6     8    1
    15     6    24    1
    16     6    25    1
    17     7     8    1
    18     7    26    1
    19     7    27    1
    20     8    28    1
    21     8    29    1
    22     9    15    1
    23     9    30    1
    24     9    31    1
    25    10    14   ar
    26    10    16   ar
    27    11    32    1
    28    11    33    1
    29    11    34    1
    30    12    35    1
    31    12    36    1
    32    12    37    1
    33    13    38    1
    34    13    39    1
    35    13    40    1
    36    14    15    1
    37    14    17   ar
    38    16    19   ar
    39    16    41    1
    40    17    18    1
    41    17    20   ar
    42    18    21    1
    43    18    22    1
    44    18    42    1
    45    19    20   ar
    46    19    43    1
    47    21    44    1
    48    21    45    1
    49    21    46    1
    50    22    47    1
    51    22    48    1
    52    22    49    1
