@<TRIPOS>MOLECULE
IMPHY015941
 12 11 0 0 0
SMALL
GASTEIGER

@<TRIPOS>ATOM
      1 S           4.5981    0.7500    0.0000 S.3     1  UNL1       -0.0800
      2 S           2.8660    0.7500    0.0000 S.3     1  UNL1       -0.0800
      3 O           3.7320   -0.7500    0.0000 O.2     1  UNL1       -0.2728
      4 C           3.7320    0.2500    0.0000 C.2     1  UNL1        0.2459
      5 C           5.4641    0.2500    0.0000 C.3     1  UNL1       -0.0100
      6 C           2.0000    0.2500    0.0000 C.3     1  UNL1       -0.0100
      7 H           5.1541   -0.2869    0.0000 H       1  UNL1        0.0345
      8 H           6.0010   -0.0600    0.0000 H       1  UNL1        0.0345
      9 H           5.7741    0.7869    0.0000 H       1  UNL1        0.0345
     10 H           1.6900    0.7869    0.0000 H       1  UNL1        0.0345
     11 H           1.4631   -0.0600    0.0000 H       1  UNL1        0.0345
     12 H           2.3100   -0.2869    0.0000 H       1  UNL1        0.0345
@<TRIPOS>BOND
     1     1     4    1
     2     1     5    1
     3     2     4    1
     4     2     6    1
     5     3     4    2
     6     5     7    1
     7     5     8    1
     8     5     9    1
     9     6    10    1
    10     6    11    1
    11     6    12    1
