@<TRIPOS>MOLECULE
IMPHY013313
 89 93 0 0 0
SMALL
GASTEIGER

@<TRIPOS>ATOM
      1 O           5.1419   -0.2321    0.0000 O.3     1  UNL1       -0.3801
      2 O           7.5385   -3.0296    0.0000 O.3     1  UNL1       -0.3911
      3 O           4.9186    0.5019    0.0000 O.2     1  UNL1       -0.2943
      4 O          11.1246    2.1462    0.0000 O.3     1  UNL1       -0.4610
      5 O          10.2528    3.6429    0.0000 O.2     1  UNL1       -0.2512
      6 C           7.5167   -0.9981    0.0000 C.3     1  UNL1       -0.0176
      7 C           6.6507   -1.4982    0.0000 C.3     1  UNL1        0.0354
      8 C           7.5167    0.0019    0.0000 C.3     1  UNL1       -0.0225
      9 C           5.7847   -0.9981    0.0000 C.3     1  UNL1        0.1350
     10 C           8.4106    0.5365    0.0000 C.3     1  UNL1       -0.0248
     11 C           4.8746   -1.5050    0.0000 C.3     1  UNL1        0.0014
     12 C           9.3167    0.0227    0.0000 C.3     1  UNL1       -0.0268
     13 C           4.8666   -2.5466    0.0000 C.3     1  UNL1       -0.0238
     14 C           8.4106   -1.5328    0.0000 C.3     1  UNL1       -0.0464
     15 C           6.6667   -2.5396    0.0000 C.3     1  UNL1        0.0647
     16 C           6.6507    0.5019    0.0000 C.3     1  UNL1        0.0126
     17 C           9.3167   -1.0190    0.0000 C.3     1  UNL1       -0.0486
     18 C           5.7687   -3.0674    0.0000 C.3     1  UNL1       -0.0204
     19 C          10.2605    0.5579    0.0000 C.3     1  UNL1        0.0055
     20 C           5.7847    0.0019    0.0000 C.2     1  UNL1        0.1658
     21 C           8.3856    1.6212    0.0000 C.3     1  UNL1       -0.0437
     22 C           7.8588   -1.9378    0.0000 C.3     1  UNL1       -0.0586
     23 C           3.9478   -0.9409    0.0000 C.3     1  UNL1       -0.0415
     24 C           7.2935   -2.2642    0.0000 C.3     1  UNL1       -0.0536
     25 C           3.9312   -3.0963    0.0000 C.3     1  UNL1       -0.0467
     26 C           7.5408    1.0298    0.0000 C.3     1  UNL1       -0.0590
     27 C           2.9999   -1.4689    0.0000 C.3     1  UNL1       -0.0345
     28 C          10.2605    1.6429    0.0000 C.3     1  UNL1        0.1084
     29 C           9.3167    2.1781    0.0000 C.3     1  UNL1       -0.0146
     30 C           2.9916   -2.5538    0.0000 C.3     1  UNL1       -0.0474
     31 C           4.8589   -3.5466    0.0000 C.3     1  UNL1       -0.0591
     32 C          11.2605    0.5541    0.0000 C.3     1  UNL1       -0.0562
     33 C          10.7572   -0.3100    0.0000 C.3     1  UNL1       -0.0562
     34 C           2.0000   -1.4573    0.0000 C.3     1  UNL1       -0.0598
     35 C           2.5100   -0.5971    0.0000 C.3     1  UNL1       -0.0598
     36 C          11.1207    3.1462    0.0000 C.2     1  UNL1        0.3042
     37 C          11.9848    3.6496    0.0000 C.3     1  UNL1        0.0332
     38 H           8.2561   -0.4175    0.0000 H       1  UNL1        0.0316
     39 H           4.8910   -0.6551    0.0000 H       1  UNL1        0.0338
     40 H          10.0512   -0.4052    0.0000 H       1  UNL1        0.0312
     41 H           8.0060   -2.0026    0.0000 H       1  UNL1        0.0271
     42 H           8.8043   -2.0118    0.0000 H       1  UNL1        0.0271
     43 H           6.6727   -3.1596    0.0000 H       1  UNL1        0.0600
     44 H           7.0492    0.9768    0.0000 H       1  UNL1        0.0346
     45 H           6.2522    0.9768    0.0000 H       1  UNL1        0.0346
     46 H           9.5258   -1.6026    0.0000 H       1  UNL1        0.0268
     47 H           9.9276   -0.9129    0.0000 H       1  UNL1        0.0268
     48 H           5.3714   -3.5434    0.0000 H       1  UNL1        0.0296
     49 H           6.1697   -3.5403    0.0000 H       1  UNL1        0.0296
     50 H           8.1631    2.1999    0.0000 H       1  UNL1        0.0272
     51 H           7.7773    1.5010    0.0000 H       1  UNL1        0.0272
     52 H           7.2762   -2.1499    0.0000 H       1  UNL1        0.0235
     53 H           8.0709   -2.5204    0.0000 H       1  UNL1        0.0235
     54 H           8.4414   -1.7257    0.0000 H       1  UNL1        0.0235
     55 H           4.3560   -0.4743    0.0000 H       1  UNL1        0.0274
     56 H           3.5579   -0.4589    0.0000 H       1  UNL1        0.0274
     57 H           6.8185   -2.6627    0.0000 H       1  UNL1        0.0237
     58 H           7.6920   -2.7391    0.0000 H       1  UNL1        0.0237
     59 H           7.7684   -1.8657    0.0000 H       1  UNL1        0.0237
     60 H           3.5339   -3.5723    0.0000 H       1  UNL1        0.0271
     61 H           4.3322   -3.5692    0.0000 H       1  UNL1        0.0271
     62 H           7.8466    1.5691    0.0000 H       1  UNL1        0.0235
     63 H           7.0015    1.3357    0.0000 H       1  UNL1        0.0235
     64 H           7.2349    0.4905    0.0000 H       1  UNL1        0.0235
     65 H          10.2569    2.2629    0.0000 H       1  UNL1        0.0739
     66 H           9.7103    2.6572    0.0000 H       1  UNL1        0.0301
     67 H           8.9121    2.6479    0.0000 H       1  UNL1        0.0301
     68 H           2.3816   -2.4430    0.0000 H       1  UNL1        0.0271
     69 H           2.7780   -3.1359    0.0000 H       1  UNL1        0.0271
     70 H           4.2389   -3.5418    0.0000 H       1  UNL1        0.0235
     71 H           4.8541   -4.1665    0.0000 H       1  UNL1        0.0235
     72 H           5.4789   -3.5513    0.0000 H       1  UNL1        0.0235
     73 H           4.5313   -0.3398    0.0000 H       1  UNL1        0.2108
     74 H          11.2581   -0.0659    0.0000 H       1  UNL1        0.0236
     75 H          11.8805    0.5517    0.0000 H       1  UNL1        0.0236
     76 H          11.2629    1.1740    0.0000 H       1  UNL1        0.0236
     77 H          10.2190   -0.6180    0.0000 H       1  UNL1        0.0236
     78 H          11.0651   -0.8482    0.0000 H       1  UNL1        0.0236
     79 H          11.2953   -0.0021    0.0000 H       1  UNL1        0.0236
     80 H           7.5457   -3.6496    0.0000 H       1  UNL1        0.2098
     81 H           2.0072   -0.8373    0.0000 H       1  UNL1        0.0235
     82 H           1.3800   -1.4501    0.0000 H       1  UNL1        0.0235
     83 H           1.9928   -2.0772    0.0000 H       1  UNL1        0.0235
     84 H           3.0505   -0.2933    0.0000 H       1  UNL1        0.0235
     85 H           2.2062   -0.0566    0.0000 H       1  UNL1        0.0235
     86 H           1.9695   -0.9009    0.0000 H       1  UNL1        0.0235
     87 H          12.2969    3.1138    0.0000 H       1  UNL1        0.0342
     88 H          12.5206    3.9616    0.0000 H       1  UNL1        0.0342
     89 H          11.6728    4.1853    0.0000 H       1  UNL1        0.0342
@<TRIPOS>BOND
     1     9     1    1
     2     1    73    1
     3    15     2    1
     4     2    80    1
     5     3    20    2
     6    28     4    1
     7     4    36    1
     8     5    36    2
     9     6     7    1
    10     6     8    1
    11     6    14    1
    12     6    22    1
    13     7     9    1
    14     7    15    1
    15     7    24    1
    16     8    10    1
    17     8    16    1
    18     8    38    1
    19     9    11    1
    20     9    20    1
    21    10    12    1
    22    10    21    1
    23    10    26    1
    24    11    13    1
    25    11    23    1
    26    11    39    1
    27    12    17    1
    28    12    19    1
    29    12    40    1
    30    13    18    1
    31    13    25    1
    32    13    31    1
    33    14    17    1
    34    14    41    1
    35    14    42    1
    36    15    18    1
    37    15    43    1
    38    16    20    1
    39    16    44    1
    40    16    45    1
    41    17    46    1
    42    17    47    1
    43    18    48    1
    44    18    49    1
    45    19    28    1
    46    19    32    1
    47    19    33    1
    48    21    29    1
    49    21    50    1
    50    21    51    1
    51    22    52    1
    52    22    53    1
    53    22    54    1
    54    23    27    1
    55    23    55    1
    56    23    56    1
    57    24    57    1
    58    24    58    1
    59    24    59    1
    60    25    30    1
    61    25    60    1
    62    25    61    1
    63    26    62    1
    64    26    63    1
    65    26    64    1
    66    27    30    1
    67    27    34    1
    68    27    35    1
    69    28    29    1
    70    28    65    1
    71    29    66    1
    72    29    67    1
    73    30    68    1
    74    30    69    1
    75    31    70    1
    76    31    71    1
    77    31    72    1
    78    32    74    1
    79    32    75    1
    80    32    76    1
    81    33    77    1
    82    33    78    1
    83    33    79    1
    84    34    81    1
    85    34    82    1
    86    34    83    1
    87    35    84    1
    88    35    85    1
    89    35    86    1
    90    36    37    1
    91    37    87    1
    92    37    88    1
    93    37    89    1
