@<TRIPOS>MOLECULE
IMPHY016191
 31 30 0 0 0
SMALL
GASTEIGER

@<TRIPOS>ATOM
      1 O           4.5981    0.7500    0.0000 O.3     1  UNL1       -0.4338
      2 O           9.7942    0.7500    0.0000 O.3     1  UNL1       -0.4338
      3 O           2.8660    0.7500    0.0000 O.3     1  UNL1       -0.4371
      4 O          11.5263    0.7500    0.0000 O.3     1  UNL1       -0.4371
      5 O           3.7320   -0.7500    0.0000 O.2     1  UNL1       -0.2029
      6 O          10.6603   -0.7500    0.0000 O.2     1  UNL1       -0.2029
      7 C           7.1962    0.2500    0.0000 C.3     1  UNL1       -0.0469
      8 C           6.3301    0.7500    0.0000 C.3     1  UNL1       -0.0183
      9 C           8.0622    0.7500    0.0000 C.3     1  UNL1       -0.0183
     10 C           5.4641    0.2500    0.0000 C.3     1  UNL1        0.0959
     11 C           8.9282    0.2500    0.0000 C.3     1  UNL1        0.0959
     12 C           3.7320    0.2500    0.0000 C.2     1  UNL1        0.5099
     13 C          10.6603    0.2500    0.0000 C.2     1  UNL1        0.5099
     14 C           2.0000    0.2500    0.0000 C.3     1  UNL1        0.0851
     15 C          12.3923    0.2500    0.0000 C.3     1  UNL1        0.0851
     16 H           6.7976   -0.2249    0.0000 H       1  UNL1        0.0267
     17 H           7.5947   -0.2249    0.0000 H       1  UNL1        0.0267
     18 H           6.7287    1.2250    0.0000 H       1  UNL1        0.0298
     19 H           5.9316    1.2250    0.0000 H       1  UNL1        0.0298
     20 H           8.4607    1.2250    0.0000 H       1  UNL1        0.0298
     21 H           7.6636    1.2250    0.0000 H       1  UNL1        0.0298
     22 H           5.0656   -0.2249    0.0000 H       1  UNL1        0.0698
     23 H           5.8626   -0.2249    0.0000 H       1  UNL1        0.0698
     24 H           8.5297   -0.2249    0.0000 H       1  UNL1        0.0698
     25 H           9.3267   -0.2249    0.0000 H       1  UNL1        0.0698
     26 H           1.6900    0.7869    0.0000 H       1  UNL1        0.0662
     27 H           1.4631   -0.0600    0.0000 H       1  UNL1        0.0662
     28 H           2.3100   -0.2869    0.0000 H       1  UNL1        0.0662
     29 H          12.0823   -0.2869    0.0000 H       1  UNL1        0.0662
     30 H          12.9292   -0.0600    0.0000 H       1  UNL1        0.0662
     31 H          12.7023    0.7869    0.0000 H       1  UNL1        0.0662
@<TRIPOS>BOND
     1     1    10    1
     2     1    12    1
     3     2    11    1
     4     2    13    1
     5     3    12    1
     6     3    14    1
     7     4    13    1
     8     4    15    1
     9     5    12    2
    10     6    13    2
    11     7     8    1
    12     7     9    1
    13     7    16    1
    14     7    17    1
    15     8    10    1
    16     8    18    1
    17     8    19    1
    18     9    11    1
    19     9    20    1
    20     9    21    1
    21    10    22    1
    22    10    23    1
    23    11    24    1
    24    11    25    1
    25    14    26    1
    26    14    27    1
    27    14    28    1
    28    15    29    1
    29    15    30    1
    30    15    31    1
