@<TRIPOS>MOLECULE
IMPHY006249
 72 75 0 0 0
SMALL
GASTEIGER

@<TRIPOS>ATOM
      1 O           8.5991   -3.5000    0.0000 O.3     1  UNL1       -0.3313
      2 O           4.2690    4.0000    0.0000 O.3     1  UNL1       -0.3313
      3 O           6.8671   -5.5000    0.0000 O.3     1  UNL1       -0.3865
      4 O           8.5991   -6.5000    0.0000 O.3     1  UNL1       -0.3864
      5 O           5.1350    6.5000    0.0000 O.3     1  UNL1       -0.3865
      6 O           6.8671    5.5000    0.0000 O.3     1  UNL1       -0.3864
      7 O          10.3312   -3.5000    0.0000 O.3     1  UNL1       -0.4607
      8 O           5.1350    2.5000    0.0000 O.3     1  UNL1       -0.4607
      9 O          10.3312   -5.5000    0.0000 O.3     1  UNL1       -0.3829
     10 O           6.8671    3.5000    0.0000 O.3     1  UNL1       -0.3829
     11 O           6.8671   -2.5000    0.0000 O.3     1  UNL1       -0.3924
     12 O           2.5369    5.0000    0.0000 O.3     1  UNL1       -0.3924
     13 O           8.5991    2.5000    0.0000 O.3     1  UNL1       -0.5061
     14 O          12.0632   -0.5000    0.0000 O.3     1  UNL1       -0.5066
     15 C           7.7331   -5.0000    0.0000 C.3     1  UNL1        0.1120
     16 C           8.5991   -5.5000    0.0000 C.3     1  UNL1        0.1152
     17 C           5.1350    5.5000    0.0000 C.3     1  UNL1        0.1120
     18 C           6.0010    5.0000    0.0000 C.3     1  UNL1        0.1152
     19 C           7.7331   -4.0000    0.0000 C.3     1  UNL1        0.1140
     20 C           9.4651   -5.0000    0.0000 C.3     1  UNL1        0.1454
     21 C           4.2690    5.0000    0.0000 C.3     1  UNL1        0.1140
     22 C           6.0010    4.0000    0.0000 C.3     1  UNL1        0.1454
     23 C           9.4651   -4.0000    0.0000 C.3     1  UNL1        0.2308
     24 C           5.1350    3.5000    0.0000 C.3     1  UNL1        0.2308
     25 C           6.8671   -3.5000    0.0000 C.3     1  UNL1        0.0731
     26 C           3.4030    5.5000    0.0000 C.3     1  UNL1        0.0731
     27 C          10.3312   -2.5000    0.0000 C.ar    1  UNL1        0.1280
     28 C           6.0010    2.0000    0.0000 C.ar    1  UNL1        0.1275
     29 C           9.4651   -2.0000    0.0000 C.ar    1  UNL1       -0.0124
     30 C           6.8671    2.5000    0.0000 C.ar    1  UNL1        0.0222
     31 C           6.0010    1.0000    0.0000 C.ar    1  UNL1       -0.0190
     32 C          11.1972   -2.0000    0.0000 C.ar    1  UNL1        0.0217
     33 C           9.4651   -1.0000    0.0000 C.ar    1  UNL1       -0.0181
     34 C           7.7331    1.0000    0.0000 C.ar    1  UNL1        0.0167
     35 C           7.7331    2.0000    0.0000 C.ar    1  UNL1        0.1274
     36 C           6.8671    0.5000    0.0000 C.ar    1  UNL1       -0.0477
     37 C          11.1972   -1.0000    0.0000 C.ar    1  UNL1        0.1209
     38 C          10.3312   -0.5000    0.0000 C.ar    1  UNL1       -0.0128
     39 C           8.5991   -0.5000    0.0000 C.2     1  UNL1       -0.0537
     40 C           8.5991    0.5000    0.0000 C.2     1  UNL1       -0.0505
     41 H           7.7331   -5.6200    0.0000 H       1  UNL1        0.0647
     42 H           9.1360   -5.8100    0.0000 H       1  UNL1        0.0648
     43 H           5.6720    5.8100    0.0000 H       1  UNL1        0.0647
     44 H           6.5380    4.6900    0.0000 H       1  UNL1        0.0648
     45 H           7.7331   -3.3800    0.0000 H       1  UNL1        0.0647
     46 H          10.0021   -4.6900    0.0000 H       1  UNL1        0.0683
     47 H           3.7320    4.6900    0.0000 H       1  UNL1        0.0647
     48 H           6.0010    3.3800    0.0000 H       1  UNL1        0.0683
     49 H           9.4651   -3.3800    0.0000 H       1  UNL1        0.1084
     50 H           4.5981    3.1900    0.0000 H       1  UNL1        0.1084
     51 H           6.2565   -3.3923    0.0000 H       1  UNL1        0.0584
     52 H           6.6550   -4.0826    0.0000 H       1  UNL1        0.0584
     53 H           3.8015    5.9750    0.0000 H       1  UNL1        0.0584
     54 H           3.0044    5.9750    0.0000 H       1  UNL1        0.0584
     55 H           6.3301   -5.1900    0.0000 H       1  UNL1        0.2100
     56 H           8.0622   -6.8100    0.0000 H       1  UNL1        0.2100
     57 H           4.5981    6.8100    0.0000 H       1  UNL1        0.2100
     58 H           6.8671    6.1200    0.0000 H       1  UNL1        0.2100
     59 H          10.8681   -5.1900    0.0000 H       1  UNL1        0.2102
     60 H           7.4040    3.8100    0.0000 H       1  UNL1        0.2102
     61 H           6.3301   -2.1900    0.0000 H       1  UNL1        0.2095
     62 H           2.0000    5.3100    0.0000 H       1  UNL1        0.2095
     63 H           8.9282   -2.3100    0.0000 H       1  UNL1        0.0660
     64 H           6.8671    3.1200    0.0000 H       1  UNL1        0.0691
     65 H           5.4641    0.6900    0.0000 H       1  UNL1        0.0654
     66 H          11.7341   -2.3100    0.0000 H       1  UNL1        0.0691
     67 H           6.8671   -0.1200    0.0000 H       1  UNL1        0.0626
     68 H          10.3312    0.1200    0.0000 H       1  UNL1        0.0660
     69 H           8.0622   -0.8100    0.0000 H       1  UNL1        0.0624
     70 H           9.1360    0.8100    0.0000 H       1  UNL1        0.0625
     71 H           8.5991    3.1200    0.0000 H       1  UNL1        0.2922
     72 H          12.0632    0.1200    0.0000 H       1  UNL1        0.2921
@<TRIPOS>BOND
     1     1    19    1
     2     1    23    1
     3     2    21    1
     4     2    24    1
     5    15     3    1
     6     3    55    1
     7    16     4    1
     8     4    56    1
     9    17     5    1
    10     5    57    1
    11    18     6    1
    12     6    58    1
    13    23     7    1
    14     7    27    1
    15    24     8    1
    16     8    28    1
    17    20     9    1
    18     9    59    1
    19    22    10    1
    20    10    60    1
    21    11    25    1
    22    11    61    1
    23    12    26    1
    24    12    62    1
    25    13    35    1
    26    13    71    1
    27    14    37    1
    28    14    72    1
    29    15    16    1
    30    15    19    1
    31    15    41    1
    32    16    20    1
    33    16    42    1
    34    17    18    1
    35    17    21    1
    36    17    43    1
    37    18    22    1
    38    18    44    1
    39    19    25    1
    40    19    45    1
    41    20    23    1
    42    20    46    1
    43    21    26    1
    44    21    47    1
    45    22    24    1
    46    22    48    1
    47    23    49    1
    48    24    50    1
    49    25    51    1
    50    25    52    1
    51    26    53    1
    52    26    54    1
    53    27    29   ar
    54    27    32   ar
    55    28    30   ar
    56    28    31   ar
    57    29    33   ar
    58    29    63    1
    59    30    35   ar
    60    30    64    1
    61    31    36   ar
    62    31    65    1
    63    32    37   ar
    64    32    66    1
    65    33    38   ar
    66    33    39    1
    67    34    35   ar
    68    34    36   ar
    69    34    40    1
    70    36    67    1
    71    37    38   ar
    72    38    68    1
    73    39    40    2
    74    39    69    1
    75    40    70    1
