@<TRIPOS>MOLECULE
IMPHY003151
 77 82 0 0 0
SMALL
GASTEIGER

@<TRIPOS>ATOM
      1 O           9.3042   -0.4146    0.0000 O.3     1  UNL1       -0.4544
      2 O          10.7038    1.1398    0.0000 O.3     1  UNL1       -0.3881
      3 O           7.5596   -0.9185    0.0000 O.3     1  UNL1       -0.4676
      4 O           6.2860    0.2552    0.0000 O.2     1  UNL1       -0.2504
      5 O          10.9535    0.1143    0.0000 O.2     1  UNL1       -0.2449
      6 O          12.8469   -2.9541    0.0000 O.3     1  UNL1       -0.4913
      7 O           9.5482   -4.0119    0.0000 O.3     1  UNL1       -0.4913
      8 O          11.5029   -4.4352    0.0000 O.3     1  UNL1       -0.4885
      9 N           6.9654    3.7714    0.0000 N.3     1  UNL1       -0.2934
     10 N           4.5124    2.6539    0.0000 N.ar    1  UNL1       -0.3564
     11 C           7.6200    1.8083    0.0000 C.3     1  UNL1       -0.0187
     12 C           8.3170    2.5824    0.0000 C.3     1  UNL1       -0.0220
     13 C           6.6028    2.0328    0.0000 C.3     1  UNL1       -0.0278
     14 C           7.9393    0.7714    0.0000 C.3     1  UNL1        0.0989
     15 C           6.2962    3.0282    0.0000 C.3     1  UNL1        0.0512
     16 C           7.9875    3.5706    0.0000 C.3     1  UNL1        0.0027
     17 C           9.3816    2.3732    0.0000 C.3     1  UNL1       -0.0191
     18 C           8.9988    0.5376    0.0000 C.3     1  UNL1        0.1422
     19 C           9.7248    1.3439    0.0000 C.3     1  UNL1        0.0932
     20 C           5.3181    3.2362    0.0000 C.ar    1  UNL1        0.0376
     21 C           6.6564    4.7224    0.0000 C.3     1  UNL1        0.0036
     22 C           5.6782    4.9304    0.0000 C.3     1  UNL1       -0.0125
     23 C           5.0091    4.1872    0.0000 C.ar    1  UNL1       -0.0164
     24 C           7.2616    0.0360    0.0000 C.2     1  UNL1        0.3139
     25 C           4.0150    4.1846    0.0000 C.ar    1  UNL1        0.0032
     26 C           3.7086    3.2389    0.0000 C.ar    1  UNL1        0.0470
     27 C           3.3334    4.9641    0.0000 C.ar    1  UNL1       -0.0523
     28 C          10.2815   -0.6263    0.0000 C.2     1  UNL1        0.3398
     29 C           2.6994    3.0072    0.0000 C.ar    1  UNL1       -0.0378
     30 C           2.3191    4.7558    0.0000 C.ar    1  UNL1       -0.0611
     31 C           6.8820   -1.6539    0.0000 C.3     1  UNL1        0.0817
     32 C           2.0000    3.7707    0.0000 C.ar    1  UNL1       -0.0598
     33 C          10.5869   -1.5785    0.0000 C.ar    1  UNL1        0.0661
     34 C           9.9149   -2.3191    0.0000 C.ar    1  UNL1       -0.0021
     35 C          11.5642   -1.7902    0.0000 C.ar    1  UNL1       -0.0021
     36 C          11.8695   -2.7424    0.0000 C.ar    1  UNL1        0.1660
     37 C          10.2202   -3.2713    0.0000 C.ar    1  UNL1        0.1660
     38 C          11.1976   -3.4830    0.0000 C.ar    1  UNL1        0.2035
     39 C          13.5189   -2.2136    0.0000 C.3     1  UNL1        0.0790
     40 C           9.8536   -4.9641    0.0000 C.3     1  UNL1        0.0790
     41 C          12.4802   -4.6469    0.0000 C.3     1  UNL1        0.0791
     42 H           7.0440    1.1833    0.0000 H       1  UNL1        0.0313
     43 H           8.8784    3.2206    0.0000 H       1  UNL1        0.0317
     44 H           5.9878    1.9544    0.0000 H       1  UNL1        0.0287
     45 H           6.5748    1.4134    0.0000 H       1  UNL1        0.0287
     46 H           7.3346    0.9085    0.0000 H       1  UNL1        0.0454
     47 H           5.7226    2.4010    0.0000 H       1  UNL1        0.0527
     48 H           8.6005    3.6632    0.0000 H       1  UNL1        0.0429
     49 H           8.0011    4.1904    0.0000 H       1  UNL1        0.0429
     50 H           9.9946    2.4658    0.0000 H       1  UNL1        0.0294
     51 H           9.3953    2.9931    0.0000 H       1  UNL1        0.0294
     52 H           9.6050    0.4076    0.0000 H       1  UNL1        0.0768
     53 H           9.9176    0.7547    0.0000 H       1  UNL1        0.0630
     54 H           7.2703    4.8087    0.0000 H       1  UNL1        0.0430
     55 H           6.6780    5.3421    0.0000 H       1  UNL1        0.0430
     56 H           5.9105    5.5052    0.0000 H       1  UNL1        0.0326
     57 H           5.1524    5.2589    0.0000 H       1  UNL1        0.0326
     58 H           4.5113    2.0339    0.0000 H       1  UNL1        0.1656
     59 H          11.1169    1.6022    0.0000 H       1  UNL1        0.2099
     60 H           3.5313    5.5517    0.0000 H       1  UNL1        0.0624
     61 H           2.5152    2.4152    0.0000 H       1  UNL1        0.0638
     62 H           1.9056    5.2178    0.0000 H       1  UNL1        0.0618
     63 H           6.4260   -1.2337    0.0000 H       1  UNL1        0.0661
     64 H           6.4618   -2.1098    0.0000 H       1  UNL1        0.0661
     65 H           7.3379   -2.0740    0.0000 H       1  UNL1        0.0661
     66 H           1.3942    3.6390    0.0000 H       1  UNL1        0.0618
     67 H           9.3089   -2.1878    0.0000 H       1  UNL1        0.0663
     68 H          11.9808   -1.3311    0.0000 H       1  UNL1        0.0663
     69 H          13.9780   -2.6302    0.0000 H       1  UNL1        0.0660
     70 H          13.9355   -1.7544    0.0000 H       1  UNL1        0.0660
     71 H          13.0597   -1.7969    0.0000 H       1  UNL1        0.0660
     72 H           9.2632   -5.1534    0.0000 H       1  UNL1        0.0660
     73 H          10.0429   -5.5545    0.0000 H       1  UNL1        0.0660
     74 H          10.4440   -4.7748    0.0000 H       1  UNL1        0.0660
     75 H          12.3490   -5.2529    0.0000 H       1  UNL1        0.0660
     76 H          13.0862   -4.7782    0.0000 H       1  UNL1        0.0660
     77 H          12.6115   -4.0410    0.0000 H       1  UNL1        0.0660
@<TRIPOS>BOND
     1    18     1    1
     2     1    28    1
     3    19     2    1
     4     2    59    1
     5     3    24    1
     6     3    31    1
     7     4    24    2
     8     5    28    2
     9     6    36    1
    10     6    39    1
    11     7    37    1
    12     7    40    1
    13     8    38    1
    14     8    41    1
    15     9    15    1
    16     9    16    1
    17     9    21    1
    18    10    20   ar
    19    10    26   ar
    20    10    58    1
    21    11    12    1
    22    11    13    1
    23    11    14    1
    24    11    42    1
    25    12    16    1
    26    12    17    1
    27    12    43    1
    28    13    15    1
    29    13    44    1
    30    13    45    1
    31    14    18    1
    32    14    24    1
    33    14    46    1
    34    15    20    1
    35    15    47    1
    36    16    48    1
    37    16    49    1
    38    17    19    1
    39    17    50    1
    40    17    51    1
    41    18    19    1
    42    18    52    1
    43    19    53    1
    44    20    23   ar
    45    21    22    1
    46    21    54    1
    47    21    55    1
    48    22    23    1
    49    22    56    1
    50    22    57    1
    51    23    25   ar
    52    25    26   ar
    53    25    27   ar
    54    26    29   ar
    55    27    30   ar
    56    27    60    1
    57    28    33    1
    58    29    32   ar
    59    29    61    1
    60    30    32   ar
    61    30    62    1
    62    31    63    1
    63    31    64    1
    64    31    65    1
    65    32    66    1
    66    33    34   ar
    67    33    35   ar
    68    34    37   ar
    69    34    67    1
    70    35    36   ar
    71    35    68    1
    72    36    38   ar
    73    37    38   ar
    74    39    69    1
    75    39    70    1
    76    39    71    1
    77    40    72    1
    78    40    73    1
    79    40    74    1
    80    41    75    1
    81    41    76    1
    82    41    77    1
