@<TRIPOS>MOLECULE
IMPHY005808
 69 73 0 0 0
SMALL
GASTEIGER

@<TRIPOS>ATOM
      1 O           7.7177   -3.1604    0.0000 O.3     1  UNL1       -0.3362
      2 O           7.2177   -0.6216    0.0000 O.3     1  UNL1       -0.3365
      3 O           5.9857   -3.1604    0.0000 O.3     1  UNL1       -0.3405
      4 O           9.1145   -2.3817    0.0000 O.3     1  UNL1       -0.3812
      5 O           5.9576   -1.8817    0.0000 O.3     1  UNL1       -0.4606
      6 O           7.7177   -5.1604    0.0000 O.3     1  UNL1       -0.3841
      7 O           5.9857   -6.1604    0.0000 O.3     1  UNL1       -0.3864
      8 O           4.2536   -5.1604    0.0000 O.3     1  UNL1       -0.3865
      9 O           9.6857   -0.2855    0.0000 O.3     1  UNL1       -0.3920
     10 O           3.3876   -3.6604    0.0000 O.3     1  UNL1       -0.3924
     11 O           4.8567    1.4725    0.0000 O.2     1  UNL1       -0.4544
     12 O           2.5009   -1.1190    0.0000 O.3     1  UNL1       -0.5058
     13 O           2.0000    0.5564    0.0000 O.2     1  UNL1       -0.2869
     14 O           6.4440    4.7098    0.0000 O.3     1  UNL1       -0.5033
     15 O           4.9629    6.0538    0.0000 O.3     1  UNL1       -0.5033
     16 C           7.7177   -2.1604    0.0000 C.3     1  UNL1        0.1565
     17 C           8.5267   -1.5727    0.0000 C.3     1  UNL1        0.1440
     18 C           6.8517   -3.6604    0.0000 C.3     1  UNL1        0.1886
     19 C           6.9087   -1.5727    0.0000 C.3     1  UNL1        0.2312
     20 C           6.8517   -4.6604    0.0000 C.3     1  UNL1        0.1341
     21 C           8.2177   -0.6216    0.0000 C.3     1  UNL1        0.0853
     22 C           5.9857   -5.1604    0.0000 C.3     1  UNL1        0.1141
     23 C           5.1196   -4.6604    0.0000 C.3     1  UNL1        0.1119
     24 C           5.1196   -3.6604    0.0000 C.3     1  UNL1        0.1130
     25 C           9.4778   -1.2636    0.0000 C.3     1  UNL1        0.0778
     26 C           4.2536   -3.1604    0.0000 C.3     1  UNL1        0.0730
     27 C           5.2145   -1.2126    0.0000 C.ar    1  UNL1        0.1310
     28 C           5.4271   -0.1929    0.0000 C.ar    1  UNL1        0.0235
     29 C           4.2226   -1.5306    0.0000 C.ar    1  UNL1        0.0226
     30 C           4.6450    0.4951    0.0000 C.ar    1  UNL1        0.1462
     31 C           3.4566   -0.8247    0.0000 C.ar    1  UNL1        0.1347
     32 C           3.6928    0.1898    0.0000 C.ar    1  UNL1        0.1055
     33 C           2.9522    0.8618    0.0000 C.ar    1  UNL1        0.1966
     34 C           4.1162    2.1445    0.0000 C.ar    1  UNL1        0.1393
     35 C           3.1639    1.8391    0.0000 C.ar    1  UNL1        0.0288
     36 C           4.3278    3.1218    0.0000 C.ar    1  UNL1        0.0211
     37 C           5.2801    3.4272    0.0000 C.ar    1  UNL1       -0.0059
     38 C           3.5873    3.7938    0.0000 C.ar    1  UNL1       -0.0474
     39 C           5.4918    4.4045    0.0000 C.ar    1  UNL1        0.1589
     40 C           3.7990    4.7711    0.0000 C.ar    1  UNL1       -0.0159
     41 C           4.7512    5.0765    0.0000 C.ar    1  UNL1        0.1583
     42 H           7.1653   -2.4419    0.0000 H       1  UNL1        0.0690
     43 H           6.8517   -3.0404    0.0000 H       1  UNL1        0.0938
     44 H           6.8117   -2.1850    0.0000 H       1  UNL1        0.1084
     45 H           6.8517   -5.2804    0.0000 H       1  UNL1        0.0671
     46 H           8.8242   -0.4927    0.0000 H       1  UNL1        0.0591
     47 H           8.1529   -0.0050    0.0000 H       1  UNL1        0.0591
     48 H           5.4487   -5.4704    0.0000 H       1  UNL1        0.0648
     49 H           4.5827   -4.3505    0.0000 H       1  UNL1        0.0647
     50 H           5.1196   -3.0404    0.0000 H       1  UNL1        0.0647
     51 H           9.5641   -1.8776    0.0000 H       1  UNL1        0.0587
     52 H          10.0974   -1.2853    0.0000 H       1  UNL1        0.0587
     53 H           9.7311   -2.3169    0.0000 H       1  UNL1        0.2105
     54 H           4.6521   -2.6855    0.0000 H       1  UNL1        0.0584
     55 H           3.8551   -2.6855    0.0000 H       1  UNL1        0.0584
     56 H           7.7177   -5.7804    0.0000 H       1  UNL1        0.2101
     57 H           5.4487   -6.4704    0.0000 H       1  UNL1        0.2100
     58 H           4.2536   -5.7804    0.0000 H       1  UNL1        0.2100
     59 H          10.2754   -0.0939    0.0000 H       1  UNL1        0.2095
     60 H           2.8506   -3.3504    0.0000 H       1  UNL1        0.2095
     61 H           6.0153    0.0033    0.0000 H       1  UNL1        0.0691
     62 H           4.0890   -2.1360    0.0000 H       1  UNL1        0.0691
     63 H           2.7048    2.2558    0.0000 H       1  UNL1        0.0693
     64 H           2.3627   -1.7234    0.0000 H       1  UNL1        0.2922
     65 H           5.7392    3.0105    0.0000 H       1  UNL1        0.0662
     66 H           2.9969    3.6045    0.0000 H       1  UNL1        0.0626
     67 H           3.3398    5.1878    0.0000 H       1  UNL1        0.0655
     68 H           6.5752    5.3158    0.0000 H       1  UNL1        0.2923
     69 H           4.5037    6.4704    0.0000 H       1  UNL1        0.2923
@<TRIPOS>BOND
     1    16     1    1
     2    18     1    1
     3     2    19    1
     4     2    21    1
     5     3    18    1
     6     3    24    1
     7     4    17    1
     8     4    53    1
     9    19     5    1
    10     5    27    1
    11    20     6    1
    12     6    56    1
    13    22     7    1
    14     7    57    1
    15    23     8    1
    16     8    58    1
    17     9    25    1
    18     9    59    1
    19    10    26    1
    20    10    60    1
    21    11    30   ar
    22    11    34   ar
    23    12    31    1
    24    12    64    1
    25    13    33    2
    26    14    39    1
    27    14    68    1
    28    15    41    1
    29    15    69    1
    30    16    17    1
    31    16    19    1
    32    16    42    1
    33    17    21    1
    34    17    25    1
    35    18    20    1
    36    18    43    1
    37    19    44    1
    38    20    22    1
    39    20    45    1
    40    21    46    1
    41    21    47    1
    42    22    23    1
    43    22    48    1
    44    23    24    1
    45    23    49    1
    46    24    26    1
    47    24    50    1
    48    25    51    1
    49    25    52    1
    50    26    54    1
    51    26    55    1
    52    27    28   ar
    53    27    29   ar
    54    28    30   ar
    55    28    61    1
    56    29    31   ar
    57    29    62    1
    58    30    32   ar
    59    31    32   ar
    60    32    33   ar
    61    33    35   ar
    62    34    35   ar
    63    34    36    1
    64    35    63    1
    65    36    37   ar
    66    36    38   ar
    67    37    39   ar
    68    37    65    1
    69    38    40   ar
    70    38    66    1
    71    39    41   ar
    72    40    41   ar
    73    40    67    1
