@<TRIPOS>MOLECULE
IMPHY006563
 34 36 0 0 0
SMALL
GASTEIGER

@<TRIPOS>ATOM
      1 O           5.4920   -1.0209    0.0000 O.2     1  UNL1       -0.4546
      2 O           3.7320    2.0137    0.0000 O.3     1  UNL1       -0.4940
      3 O           2.0000   -0.9863    0.0000 O.2     1  UNL1       -0.2874
      4 C           4.5981    0.5137    0.0000 C.ar    1  UNL1        0.0595
      5 C           4.5981   -0.4863    0.0000 C.ar    1  UNL1        0.1427
      6 C           3.7320    1.0137    0.0000 C.ar    1  UNL1        0.1372
      7 C           2.8660    0.5137    0.0000 C.ar    1  UNL1        0.0386
      8 C           6.3981   -0.5071    0.0000 C.ar    1  UNL1        0.1356
      9 C           5.4920    1.0484    0.0000 C.ar    1  UNL1       -0.0441
     10 C           3.7320   -0.9863    0.0000 C.ar    1  UNL1        0.0285
     11 C           2.8660   -0.4863    0.0000 C.ar    1  UNL1        0.1888
     12 C           6.3981    0.5346    0.0000 C.ar    1  UNL1       -0.0180
     13 C           7.2622   -1.0104    0.0000 C.ar    1  UNL1        0.0173
     14 C           2.0000    1.0137    0.0000 C.3     1  UNL1       -0.0326
     15 C           7.2583   -2.0104    0.0000 C.ar    1  UNL1       -0.0511
     16 C           8.1301   -0.5138    0.0000 C.ar    1  UNL1       -0.0511
     17 C           8.1224   -2.5137    0.0000 C.ar    1  UNL1       -0.0611
     18 C           8.9942   -1.0171    0.0000 C.ar    1  UNL1       -0.0611
     19 C           8.9904   -2.0171    0.0000 C.ar    1  UNL1       -0.0617
     20 C           2.8660    2.5137    0.0000 C.3     1  UNL1        0.0788
     21 H           5.4848    1.6684    0.0000 H       1  UNL1        0.0627
     22 H           3.7320   -1.6063    0.0000 H       1  UNL1        0.0693
     23 H           6.9338    0.8466    0.0000 H       1  UNL1        0.0655
     24 H           2.3100    1.5507    0.0000 H       1  UNL1        0.0280
     25 H           1.4631    1.3237    0.0000 H       1  UNL1        0.0280
     26 H           1.6900    0.4768    0.0000 H       1  UNL1        0.0280
     27 H           6.7202   -2.3183    0.0000 H       1  UNL1        0.0625
     28 H           8.1325    0.1062    0.0000 H       1  UNL1        0.0625
     29 H           8.1200   -3.1337    0.0000 H       1  UNL1        0.0618
     30 H           9.5323   -0.7092    0.0000 H       1  UNL1        0.0618
     31 H           9.5261   -2.3292    0.0000 H       1  UNL1        0.0618
     32 H           3.1760    3.0507    0.0000 H       1  UNL1        0.0660
     33 H           2.3291    2.8237    0.0000 H       1  UNL1        0.0660
     34 H           2.5560    1.9768    0.0000 H       1  UNL1        0.0660
@<TRIPOS>BOND
     1     1     5   ar
     2     1     8   ar
     3     2     6    1
     4     2    20    1
     5     3    11    2
     6     4     5    1
     7     4     6   ar
     8     4     9   ar
     9     5    10   ar
    10     6     7   ar
    11     7    11   ar
    12     7    14    1
    13     8    12   ar
    14     8    13    1
    15     9    12   ar
    16     9    21    1
    17    10    11   ar
    18    10    22    1
    19    12    23    1
    20    13    15   ar
    21    13    16   ar
    22    14    24    1
    23    14    25    1
    24    14    26    1
    25    15    17   ar
    26    15    27    1
    27    16    18   ar
    28    16    28    1
    29    17    19   ar
    30    17    29    1
    31    18    19   ar
    32    18    30    1
    33    19    31    1
    34    20    32    1
    35    20    33    1
    36    20    34    1
