@<TRIPOS>MOLECULE
IMPHY005946
 38 39 0 0 0
SMALL
GASTEIGER

@<TRIPOS>ATOM
      1 O           8.1282   -1.2914    0.0000 O.2     1  UNL1       -0.2927
      2 C           5.4641   -0.7673    0.0000 C.3     1  UNL1       -0.0186
      3 C           5.4641    0.2327    0.0000 C.3     1  UNL1       -0.0134
      4 C           4.5981   -1.2673    0.0000 C.3     1  UNL1       -0.0461
      5 C           4.5981    0.7327    0.0000 C.3     1  UNL1       -0.0395
      6 C           3.7320    0.2327    0.0000 C.3     1  UNL1       -0.0198
      7 C           3.7320   -0.7673    0.0000 C.3     1  UNL1       -0.0460
      8 C           6.3580   -1.3020    0.0000 C.3     1  UNL1        0.0158
      9 C           6.3580    0.7674    0.0000 C.2     1  UNL1       -0.0657
     10 C           5.4641   -1.7673    0.0000 C.3     1  UNL1       -0.0586
     11 C           7.2641   -0.7881    0.0000 C.2     1  UNL1        0.1566
     12 C           2.8660    0.7327    0.0000 C.2     1  UNL1       -0.0766
     13 C           7.2641    0.2535    0.0000 C.2     1  UNL1       -0.0199
     14 C           6.3465    1.7673    0.0000 C.3     1  UNL1       -0.0431
     15 C           2.0000    0.2327    0.0000 C.3     1  UNL1       -0.0438
     16 C           2.8660    1.7327    0.0000 C.2     1  UNL1       -0.0994
     17 H           5.4576    1.0827    0.0000 H       1  UNL1        0.0351
     18 H           4.1996   -1.7422    0.0000 H       1  UNL1        0.0271
     19 H           4.9966   -1.7422    0.0000 H       1  UNL1        0.0271
     20 H           4.9966    1.2076    0.0000 H       1  UNL1        0.0277
     21 H           4.1996    1.2076    0.0000 H       1  UNL1        0.0277
     22 H           3.7320    1.0827    0.0000 H       1  UNL1        0.0346
     23 H           3.1215   -0.6596    0.0000 H       1  UNL1        0.0271
     24 H           3.5200   -1.3499    0.0000 H       1  UNL1        0.0271
     25 H           5.9534   -1.7718    0.0000 H       1  UNL1        0.0350
     26 H           6.7517   -1.7810    0.0000 H       1  UNL1        0.0350
     27 H           4.8441   -1.7673    0.0000 H       1  UNL1        0.0235
     28 H           5.4641   -2.3873    0.0000 H       1  UNL1        0.0235
     29 H           6.0841   -1.7673    0.0000 H       1  UNL1        0.0235
     30 H           7.7998    0.5656    0.0000 H       1  UNL1        0.0652
     31 H           6.9664    1.7745    0.0000 H       1  UNL1        0.0275
     32 H           6.3393    2.3873    0.0000 H       1  UNL1        0.0275
     33 H           5.7265    1.7601    0.0000 H       1  UNL1        0.0275
     34 H           1.6900    0.7696    0.0000 H       1  UNL1        0.0274
     35 H           1.4631   -0.0773    0.0000 H       1  UNL1        0.0274
     36 H           2.3100   -0.3042    0.0000 H       1  UNL1        0.0274
     37 H           3.4030    2.0427    0.0000 H       1  UNL1        0.0534
     38 H           2.3291    2.0427    0.0000 H       1  UNL1        0.0534
@<TRIPOS>BOND
     1     1    11    2
     2     2     3    1
     3     2     4    1
     4     2     8    1
     5     2    10    1
     6     3     5    1
     7     3     9    1
     8     3    17    1
     9     4     7    1
    10     4    18    1
    11     4    19    1
    12     5     6    1
    13     5    20    1
    14     5    21    1
    15     6     7    1
    16     6    12    1
    17     6    22    1
    18     7    23    1
    19     7    24    1
    20     8    11    1
    21     8    25    1
    22     8    26    1
    23     9    13    2
    24     9    14    1
    25    10    27    1
    26    10    28    1
    27    10    29    1
    28    11    13    1
    29    12    15    1
    30    12    16    2
    31    13    30    1
    32    14    31    1
    33    14    32    1
    34    14    33    1
    35    15    34    1
    36    15    35    1
    37    15    36    1
    38    16    37    1
    39    16    38    1
