@<TRIPOS>MOLECULE
IMPHY006029
 20 20 0 0 0
SMALL
GASTEIGER

@<TRIPOS>ATOM
      1 O           2.8660   -2.3100    0.0000 O.3     1  UNL1       -0.4951
      2 O           3.7320    2.1900    0.0000 O.3     1  UNL1       -0.3904
      3 C           2.8660    0.6900    0.0000 C.ar    1  UNL1       -0.0220
      4 C           2.0000    0.1900    0.0000 C.ar    1  UNL1       -0.0529
      5 C           3.7320    0.1900    0.0000 C.ar    1  UNL1       -0.0529
      6 C           2.8660   -1.3100    0.0000 C.ar    1  UNL1        0.1201
      7 C           2.8660    1.6900    0.0000 C.3     1  UNL1        0.0692
      8 C           2.0000   -0.8100    0.0000 C.ar    1  UNL1       -0.0196
      9 C           3.7320   -0.8100    0.0000 C.ar    1  UNL1       -0.0196
     10 C           2.0000   -2.8100    0.0000 C.3     1  UNL1        0.0788
     11 H           1.4631    0.5000    0.0000 H       1  UNL1        0.0622
     12 H           4.2690    0.5000    0.0000 H       1  UNL1        0.0622
     13 H           2.6540    2.2726    0.0000 H       1  UNL1        0.0607
     14 H           2.2554    1.5823    0.0000 H       1  UNL1        0.0607
     15 H           1.4631   -1.1200    0.0000 H       1  UNL1        0.0654
     16 H           4.2690   -1.1200    0.0000 H       1  UNL1        0.0654
     17 H           1.6900   -2.2731    0.0000 H       1  UNL1        0.0660
     18 H           1.4631   -3.1200    0.0000 H       1  UNL1        0.0660
     19 H           2.3100   -3.3469    0.0000 H       1  UNL1        0.0660
     20 H           3.7320    2.8100    0.0000 H       1  UNL1        0.2098
@<TRIPOS>BOND
     1     1     6    1
     2     1    10    1
     3     2     7    1
     4     2    20    1
     5     3     4   ar
     6     3     5   ar
     7     3     7    1
     8     4     8   ar
     9     4    11    1
    10     5     9   ar
    11     5    12    1
    12     6     8   ar
    13     6     9   ar
    14     7    13    1
    15     7    14    1
    16     8    15    1
    17     9    16    1
    18    10    17    1
    19    10    18    1
    20    10    19    1
