@<TRIPOS>MOLECULE
IMPHY014618
 45 49 0 0 0
SMALL
GASTEIGER

@<TRIPOS>ATOM
      1 O           6.2596   -2.3398    0.0000 O.3     1  UNL1       -0.3739
      2 O           3.7670    1.9575    0.0000 O.3     1  UNL1       -0.3757
      3 O           2.6079    0.4984    0.0000 O.3     1  UNL1       -0.4526
      4 O           2.6079   -1.1781    0.0000 O.3     1  UNL1       -0.4526
      5 N           7.1256    0.1602    0.0000 N.3     1  UNL1       -0.2825
      6 C           6.2596    0.6602    0.0000 C.3     1  UNL1        0.0756
      7 C           5.2440    0.8624    0.0000 C.3     1  UNL1        0.0039
      8 C           5.3935    0.1602    0.0000 C.ar    1  UNL1       -0.0133
      9 C           6.4688    1.6320    0.0000 C.2     1  UNL1       -0.0256
     10 C           7.1256   -0.8398    0.0000 C.3     1  UNL1        0.0308
     11 C           7.8626    0.8272    0.0000 C.3     1  UNL1        0.0189
     12 C           6.2596   -1.3398    0.0000 C.3     1  UNL1        0.0964
     13 C           5.3935   -0.8398    0.0000 C.ar    1  UNL1       -0.0087
     14 C           4.7664    1.9238    0.0000 C.3     1  UNL1        0.0790
     15 C           7.4575    1.7350    0.0000 C.2     1  UNL1       -0.0648
     16 C           6.1666    2.6224    0.0000 C.2     1  UNL1       -0.0583
     17 C           4.4996    0.6948    0.0000 C.ar    1  UNL1       -0.0105
     18 C           5.3086    2.7698    0.0000 C.2     1  UNL1       -0.0553
     19 C           4.4996   -1.3745    0.0000 C.ar    1  UNL1       -0.0101
     20 C           3.5935    0.1810    0.0000 C.ar    1  UNL1        0.1666
     21 C           3.5935   -0.8607    0.0000 C.ar    1  UNL1        0.1666
     22 C           7.1256   -2.8398    0.0000 C.3     1  UNL1        0.0373
     23 C           2.0000   -0.3398    0.0000 C.3     1  UNL1        0.2332
     24 C           3.2964    2.8398    0.0000 C.3     1  UNL1        0.0372
     25 H           4.6385    0.7293    0.0000 H       1  UNL1        0.0318
     26 H           5.2502    0.2425    0.0000 H       1  UNL1        0.0318
     27 H           7.3376   -1.4224    0.0000 H       1  UNL1        0.0456
     28 H           7.7362   -0.7322    0.0000 H       1  UNL1        0.0456
     29 H           8.2280    0.3264    0.0000 H       1  UNL1        0.0470
     30 H           8.3991    1.1380    0.0000 H       1  UNL1        0.0470
     31 H           6.7965   -1.6498    0.0000 H       1  UNL1        0.0659
     32 H           4.4781    2.4728    0.0000 H       1  UNL1        0.0641
     33 H           7.7675    2.2720    0.0000 H       1  UNL1        0.0588
     34 H           6.5765    3.0875    0.0000 H       1  UNL1        0.0619
     35 H           4.5068    1.3148    0.0000 H       1  UNL1        0.0659
     36 H           5.0585    3.3371    0.0000 H       1  UNL1        0.0598
     37 H           4.5068   -1.9945    0.0000 H       1  UNL1        0.0659
     38 H           6.8156   -3.3768    0.0000 H       1  UNL1        0.0524
     39 H           7.6625   -3.1498    0.0000 H       1  UNL1        0.0524
     40 H           7.4356   -2.3029    0.0000 H       1  UNL1        0.0524
     41 H           1.5391    0.0749    0.0000 H       1  UNL1        0.1166
     42 H           1.5391   -0.7546    0.0000 H       1  UNL1        0.1166
     43 H           3.8434    3.1316    0.0000 H       1  UNL1        0.0524
     44 H           3.0046    3.3869    0.0000 H       1  UNL1        0.0524
     45 H           2.7493    2.5481    0.0000 H       1  UNL1        0.0524
@<TRIPOS>BOND
     1    12     1    1
     2     1    22    1
     3    14     2    1
     4     2    24    1
     5     3    20    1
     6     3    23    1
     7     4    21    1
     8     4    23    1
     9     5     6    1
    10     5    10    1
    11     5    11    1
    12     6     7    1
    13     6     8    1
    14     6     9    1
    15     7    14    1
    16     7    25    1
    17     7    26    1
    18     8    13   ar
    19     8    17   ar
    20     9    15    2
    21     9    16    1
    22    10    12    1
    23    10    27    1
    24    10    28    1
    25    11    15    1
    26    11    29    1
    27    11    30    1
    28    12    13    1
    29    12    31    1
    30    13    19   ar
    31    14    18    1
    32    14    32    1
    33    15    33    1
    34    16    18    2
    35    16    34    1
    36    17    20   ar
    37    17    35    1
    38    18    36    1
    39    19    21   ar
    40    19    37    1
    41    20    21   ar
    42    22    38    1
    43    22    39    1
    44    22    40    1
    45    23    41    1
    46    23    42    1
    47    24    43    1
    48    24    44    1
    49    24    45    1
