@<TRIPOS>MOLECULE
IMPHY016157
 31 32 0 0 0
SMALL
GASTEIGER

@<TRIPOS>ATOM
      1 C           2.8660    0.5000    0.0000 C.3     1  UNL1        0.0090
      2 C           2.0000    1.0000    0.0000 C.3     1  UNL1       -0.0450
      3 C           2.8660   -0.5000    0.0000 C.ar    1  UNL1       -0.0400
      4 C           3.7320    1.0000    0.0000 C.ar    1  UNL1       -0.0400
      5 C           2.0000    2.0000    0.0000 C.3     1  UNL1       -0.0644
      6 C           2.0000   -1.0000    0.0000 C.ar    1  UNL1       -0.0580
      7 C           3.7320    2.0000    0.0000 C.ar    1  UNL1       -0.0580
      8 C           3.7320   -1.0000    0.0000 C.ar    1  UNL1       -0.0580
      9 C           4.5981    0.5000    0.0000 C.ar    1  UNL1       -0.0580
     10 C           2.0000   -2.0000    0.0000 C.ar    1  UNL1       -0.0615
     11 C           4.5981    2.5000    0.0000 C.ar    1  UNL1       -0.0615
     12 C           3.7320   -2.0000    0.0000 C.ar    1  UNL1       -0.0615
     13 C           5.4641    1.0000    0.0000 C.ar    1  UNL1       -0.0615
     14 C           2.8660   -2.5000    0.0000 C.ar    1  UNL1       -0.0617
     15 C           5.4641    2.0000    0.0000 C.ar    1  UNL1       -0.0617
     16 H           2.8660    1.1200    0.0000 H       1  UNL1        0.0397
     17 H           1.3894    1.1077    0.0000 H       1  UNL1        0.0272
     18 H           1.7880    0.4174    0.0000 H       1  UNL1        0.0272
     19 H           2.6200    2.0000    0.0000 H       1  UNL1        0.0230
     20 H           2.0000    2.6200    0.0000 H       1  UNL1        0.0230
     21 H           1.3800    2.0000    0.0000 H       1  UNL1        0.0230
     22 H           1.4631   -0.6900    0.0000 H       1  UNL1        0.0620
     23 H           3.1951    2.3100    0.0000 H       1  UNL1        0.0620
     24 H           4.2690   -0.6900    0.0000 H       1  UNL1        0.0620
     25 H           4.5981   -0.1200    0.0000 H       1  UNL1        0.0620
     26 H           1.4631   -2.3100    0.0000 H       1  UNL1        0.0618
     27 H           4.5981    3.1200    0.0000 H       1  UNL1        0.0618
     28 H           4.2690   -2.3100    0.0000 H       1  UNL1        0.0618
     29 H           6.0010    0.6900    0.0000 H       1  UNL1        0.0618
     30 H           2.8660   -3.1200    0.0000 H       1  UNL1        0.0618
     31 H           6.0010    2.3100    0.0000 H       1  UNL1        0.0618
@<TRIPOS>BOND
     1     1     2    1
     2     1     3    1
     3     1     4    1
     4     1    16    1
     5     2     5    1
     6     2    17    1
     7     2    18    1
     8     3     6   ar
     9     3     8   ar
    10     4     7   ar
    11     4     9   ar
    12     5    19    1
    13     5    20    1
    14     5    21    1
    15     6    10   ar
    16     6    22    1
    17     7    11   ar
    18     7    23    1
    19     8    12   ar
    20     8    24    1
    21     9    13   ar
    22     9    25    1
    23    10    14   ar
    24    10    26    1
    25    11    15   ar
    26    11    27    1
    27    12    14   ar
    28    12    28    1
    29    13    15   ar
    30    13    29    1
    31    14    30    1
    32    15    31    1
