@<TRIPOS>MOLECULE
IMPHY010248
 41 40 0 0 0
SMALL
GASTEIGER

@<TRIPOS>ATOM
      1 O           4.5981   -3.3100    0.0000 O.2     1  UNL1       -0.2923
      2 O           9.7942    2.6900    0.0000 O.3     1  UNL1       -0.3910
      3 C           7.1962   -0.8100    0.0000 C.3     1  UNL1       -0.0308
      4 C           8.0622   -0.3100    0.0000 C.3     1  UNL1       -0.0285
      5 C           6.3301   -2.3100    0.0000 C.2     1  UNL1       -0.0691
      6 C           7.1962   -1.8100    0.0000 C.2     1  UNL1       -0.0843
      7 C           8.0622    0.6900    0.0000 C.2     1  UNL1       -0.0741
      8 C           5.4641   -1.8100    0.0000 C.3     1  UNL1        0.0307
      9 C           6.3301   -3.3100    0.0000 C.3     1  UNL1       -0.0434
     10 C           7.1962    1.1900    0.0000 C.3     1  UNL1       -0.0437
     11 C           8.9282    1.1900    0.0000 C.2     1  UNL1       -0.0600
     12 C           4.5981   -2.3100    0.0000 C.2     1  UNL1        0.1600
     13 C           3.7320   -1.8100    0.0000 C.2     1  UNL1       -0.0202
     14 C           8.9282    2.1900    0.0000 C.3     1  UNL1        0.0626
     15 C           2.8660   -2.3100    0.0000 C.2     1  UNL1       -0.0724
     16 C           2.0000   -1.8100    0.0000 C.3     1  UNL1       -0.0437
     17 C           2.8660   -3.3100    0.0000 C.3     1  UNL1       -0.0437
     18 H           6.9841   -0.2274    0.0000 H       1  UNL1        0.0310
     19 H           6.5856   -0.9177    0.0000 H       1  UNL1        0.0310
     20 H           8.2742   -0.8926    0.0000 H       1  UNL1        0.0313
     21 H           8.6728   -0.2023    0.0000 H       1  UNL1        0.0313
     22 H           7.7331   -2.1200    0.0000 H       1  UNL1        0.0572
     23 H           5.8626   -1.3350    0.0000 H       1  UNL1        0.0390
     24 H           5.0656   -1.3350    0.0000 H       1  UNL1        0.0390
     25 H           5.7101   -3.3100    0.0000 H       1  UNL1        0.0274
     26 H           6.3301   -3.9300    0.0000 H       1  UNL1        0.0274
     27 H           6.9501   -3.3100    0.0000 H       1  UNL1        0.0274
     28 H           7.5062    1.7269    0.0000 H       1  UNL1        0.0274
     29 H           6.6592    1.5000    0.0000 H       1  UNL1        0.0274
     30 H           6.8862    0.6531    0.0000 H       1  UNL1        0.0274
     31 H           9.4651    0.8800    0.0000 H       1  UNL1        0.0594
     32 H           3.7320   -1.1900    0.0000 H       1  UNL1        0.0652
     33 H           8.7162    2.7726    0.0000 H       1  UNL1        0.0601
     34 H           8.3176    2.0823    0.0000 H       1  UNL1        0.0601
     35 H           2.2460   -3.3100    0.0000 H       1  UNL1        0.0274
     36 H           2.8660   -3.9300    0.0000 H       1  UNL1        0.0274
     37 H           3.4860   -3.3100    0.0000 H       1  UNL1        0.0274
     38 H           2.3100   -1.2731    0.0000 H       1  UNL1        0.0274
     39 H           1.4631   -1.5000    0.0000 H       1  UNL1        0.0274
     40 H           1.6900   -2.3469    0.0000 H       1  UNL1        0.0274
     41 H           9.7942    3.3100    0.0000 H       1  UNL1        0.2098
@<TRIPOS>BOND
     1     1    12    2
     2     2    14    1
     3     2    41    1
     4     3     4    1
     5     3     6    1
     6     3    18    1
     7     3    19    1
     8     4     7    1
     9     4    20    1
    10     4    21    1
    11     5     6    2
    12     5     8    1
    13     5     9    1
    14     6    22    1
    15     7    10    1
    16     7    11    2
    17     8    12    1
    18     8    23    1
    19     8    24    1
    20     9    25    1
    21     9    26    1
    22     9    27    1
    23    10    28    1
    24    10    29    1
    25    10    30    1
    26    11    14    1
    27    11    31    1
    28    12    13    1
    29    13    15    2
    30    13    32    1
    31    14    33    1
    32    14    34    1
    33    15    16    1
    34    15    17    1
    35    16    38    1
    36    16    39    1
    37    16    40    1
    38    17    35    1
    39    17    36    1
    40    17    37    1
