@<TRIPOS>MOLECULE
IMPHY004435
 30 29 0 0 0
SMALL
GASTEIGER

@<TRIPOS>ATOM
      1 O           2.5369   -0.9330    0.0000 O.3     1  UNL1       -0.3845
      2 O           7.7331   -0.9330    0.0000 O.3     1  UNL1       -0.3851
      3 C           3.4030   -0.4330    0.0000 C.3     1  UNL1        0.0845
      4 C           4.2690    0.0670    0.0000 C.3     1  UNL1       -0.0023
      5 C           6.8671   -0.4330    0.0000 C.3     1  UNL1        0.0786
      6 C           5.1350   -0.4330    0.0000 C.2     1  UNL1       -0.0823
      7 C           6.0010    0.0670    0.0000 C.2     1  UNL1       -0.0572
      8 C           3.9030   -1.2990    0.0000 C.3     1  UNL1       -0.0322
      9 C           7.3671    0.4330    0.0000 C.3     1  UNL1       -0.0327
     10 C           6.3671   -1.2990    0.0000 C.3     1  UNL1       -0.0327
     11 C           2.9030    0.4330    0.0000 C.2     1  UNL1       -0.0599
     12 C           3.4030    1.2990    0.0000 C.2     1  UNL1       -0.1000
     13 H           4.6675    0.5419    0.0000 H       1  UNL1        0.0338
     14 H           3.8705    0.5419    0.0000 H       1  UNL1        0.0338
     15 H           5.1350   -1.0530    0.0000 H       1  UNL1        0.0571
     16 H           6.0010    0.6870    0.0000 H       1  UNL1        0.0597
     17 H           3.3660   -1.6090    0.0000 H       1  UNL1        0.0260
     18 H           4.2130   -1.8360    0.0000 H       1  UNL1        0.0260
     19 H           4.4399   -0.9890    0.0000 H       1  UNL1        0.0260
     20 H           7.9040    0.1230    0.0000 H       1  UNL1        0.0260
     21 H           7.6771    0.9699    0.0000 H       1  UNL1        0.0260
     22 H           6.8301    0.7430    0.0000 H       1  UNL1        0.0260
     23 H           5.8301   -0.9890    0.0000 H       1  UNL1        0.0260
     24 H           6.0571   -1.8360    0.0000 H       1  UNL1        0.0260
     25 H           6.9040   -1.6090    0.0000 H       1  UNL1        0.0260
     26 H           2.2830    0.4330    0.0000 H       1  UNL1        0.0594
     27 H           2.0000   -0.6230    0.0000 H       1  UNL1        0.2106
     28 H           8.2700   -0.6230    0.0000 H       1  UNL1        0.2106
     29 H           4.0230    1.2990    0.0000 H       1  UNL1        0.0533
     30 H           3.0930    1.8360    0.0000 H       1  UNL1        0.0533
@<TRIPOS>BOND
     1     1     3    1
     2     1    27    1
     3     2     5    1
     4     2    28    1
     5     3     4    1
     6     3     8    1
     7     3    11    1
     8     4     6    1
     9     4    13    1
    10     4    14    1
    11     5     7    1
    12     5     9    1
    13     5    10    1
    14     6     7    2
    15     6    15    1
    16     7    16    1
    17     8    17    1
    18     8    18    1
    19     8    19    1
    20     9    20    1
    21     9    21    1
    22     9    22    1
    23    10    23    1
    24    10    24    1
    25    10    25    1
    26    11    12    2
    27    11    26    1
    28    12    29    1
    29    12    30    1
