@<TRIPOS>MOLECULE
IMPHY001973
 59 62 0 0 0
SMALL
GASTEIGER

@<TRIPOS>ATOM
      1 O           5.5180    4.3796    0.0000 O.3     1  UNL1       -0.3912
      2 O           9.0482    3.4038    0.0000 O.3     1  UNL1       -0.3912
      3 O           4.6520   -0.1204    0.0000 O.3     1  UNL1       -0.4912
      4 O           2.8760   -3.1272    0.0000 O.2     1  UNL1       -0.4220
      5 O           2.0000   -4.6655    0.0000 O.2     1  UNL1       -0.2452
      6 C           6.3840    1.8796    0.0000 C.3     1  UNL1       -0.0166
      7 C           6.3840    2.8796    0.0000 C.3     1  UNL1       -0.0011
      8 C           7.2780    3.4143    0.0000 C.3     1  UNL1       -0.0032
      9 C           5.5180    1.3796    0.0000 C.3     1  UNL1        0.0198
     10 C           7.2780    1.3450    0.0000 C.3     1  UNL1       -0.0443
     11 C           5.5180    3.3796    0.0000 C.3     1  UNL1        0.0628
     12 C           8.1841    2.9005    0.0000 C.3     1  UNL1        0.0607
     13 C           8.1841    1.8588    0.0000 C.3     1  UNL1       -0.0258
     14 C           6.3840    0.8796    0.0000 C.3     1  UNL1       -0.0586
     15 C           4.6520    2.8796    0.0000 C.3     1  UNL1       -0.0052
     16 C           4.6520    1.8796    0.0000 C.2     1  UNL1       -0.0674
     17 C           7.7680    4.2860    0.0000 C.3     1  UNL1       -0.0571
     18 C           6.7680    4.2745    0.0000 C.3     1  UNL1       -0.0571
     19 C           5.5180    0.3796    0.0000 C.3     1  UNL1        0.0965
     20 C           3.7860    1.3796    0.0000 C.2     1  UNL1       -0.0990
     21 C           4.6520   -1.1204    0.0000 C.ar    1  UNL1        0.1241
     22 C           3.7860   -1.6204    0.0000 C.ar    1  UNL1        0.0231
     23 C           5.5180   -1.6204    0.0000 C.ar    1  UNL1       -0.0192
     24 C           3.7860   -2.6204    0.0000 C.ar    1  UNL1        0.1425
     25 C           5.5180   -2.6204    0.0000 C.ar    1  UNL1       -0.0476
     26 C           4.6520   -3.1204    0.0000 C.ar    1  UNL1        0.0178
     27 C           4.6681   -4.1619    0.0000 C.ar    1  UNL1       -0.0443
     28 C           2.8680   -4.1688    0.0000 C.ar    1  UNL1        0.3372
     29 C           3.7700   -4.6896    0.0000 C.ar    1  UNL1        0.0236
     30 H           6.3775    3.7296    0.0000 H       1  UNL1        0.0337
     31 H           4.9811    1.0696    0.0000 H       1  UNL1        0.0384
     32 H           6.8734    0.8752    0.0000 H       1  UNL1        0.0272
     33 H           7.6716    0.8660    0.0000 H       1  UNL1        0.0272
     34 H           4.9811    3.6896    0.0000 H       1  UNL1        0.0599
     35 H           8.7216    2.5915    0.0000 H       1  UNL1        0.0599
     36 H           8.3931    1.2751    0.0000 H       1  UNL1        0.0290
     37 H           8.7949    1.9649    0.0000 H       1  UNL1        0.0290
     38 H           5.7640    0.8796    0.0000 H       1  UNL1        0.0235
     39 H           6.3840    0.2596    0.0000 H       1  UNL1        0.0235
     40 H           7.0040    0.8796    0.0000 H       1  UNL1        0.0235
     41 H           4.4399    3.4622    0.0000 H       1  UNL1        0.0335
     42 H           4.0414    2.7720    0.0000 H       1  UNL1        0.0335
     43 H           7.3013    4.5907    0.0000 H       1  UNL1        0.0236
     44 H           6.4518    4.8078    0.0000 H       1  UNL1        0.0236
     45 H           6.2347    3.9583    0.0000 H       1  UNL1        0.0236
     46 H           8.3084    3.9823    0.0000 H       1  UNL1        0.0236
     47 H           8.0717    4.8265    0.0000 H       1  UNL1        0.0236
     48 H           7.2275    4.5898    0.0000 H       1  UNL1        0.0236
     49 H           5.7301   -0.2030    0.0000 H       1  UNL1        0.0703
     50 H           6.1286    0.4873    0.0000 H       1  UNL1        0.0703
     51 H           4.9811    4.6896    0.0000 H       1  UNL1        0.2098
     52 H           9.5863    3.0958    0.0000 H       1  UNL1        0.2098
     53 H           3.2490    1.6896    0.0000 H       1  UNL1        0.0535
     54 H           3.7860    0.7596    0.0000 H       1  UNL1        0.0535
     55 H           3.2490   -1.3104    0.0000 H       1  UNL1        0.0691
     56 H           6.0550   -1.3104    0.0000 H       1  UNL1        0.0654
     57 H           6.0550   -2.9304    0.0000 H       1  UNL1        0.0626
     58 H           5.2086   -4.4656    0.0000 H       1  UNL1        0.0627
     59 H           3.7724   -5.3096    0.0000 H       1  UNL1        0.0689
@<TRIPOS>BOND
     1    11     1    1
     2     1    51    1
     3    12     2    1
     4     2    52    1
     5     3    19    1
     6     3    21    1
     7     4    24   ar
     8     4    28   ar
     9     5    28    2
    10     6     7    1
    11     6     9    1
    12     6    10    1
    13     6    14    1
    14     7     8    1
    15     7    11    1
    16     7    30    1
    17     8    12    1
    18     8    17    1
    19     8    18    1
    20     9    16    1
    21     9    19    1
    22     9    31    1
    23    10    13    1
    24    10    32    1
    25    10    33    1
    26    11    15    1
    27    11    34    1
    28    12    13    1
    29    12    35    1
    30    13    36    1
    31    13    37    1
    32    14    38    1
    33    14    39    1
    34    14    40    1
    35    15    16    1
    36    15    41    1
    37    15    42    1
    38    16    20    2
    39    17    46    1
    40    17    47    1
    41    17    48    1
    42    18    43    1
    43    18    44    1
    44    18    45    1
    45    19    49    1
    46    19    50    1
    47    20    53    1
    48    20    54    1
    49    21    22   ar
    50    21    23   ar
    51    22    24   ar
    52    22    55    1
    53    23    25   ar
    54    23    56    1
    55    24    26   ar
    56    25    26   ar
    57    25    57    1
    58    26    27   ar
    59    27    29   ar
    60    27    58    1
    61    28    29   ar
    62    29    59    1
