@<TRIPOS>MOLECULE
IMPHY006904
 106 116 0 0 0
SMALL
GASTEIGER

@<TRIPOS>ATOM
      1 O           4.3324    0.6353    0.0000 O.3     1  UNL1       -0.3374
      2 O           7.4732    0.9161    0.0000 O.3     1  UNL1       -0.4512
      3 O           6.9825    2.1838    0.0000 O.3     1  UNL1       -0.4501
      4 O           5.2505    3.1838    0.0000 O.3     1  UNL1       -0.4488
      5 O           3.4803    2.1869    0.0000 O.3     1  UNL1       -0.3641
      6 O           3.8933   -2.2159    0.0000 O.3     1  UNL1       -0.4584
      7 O           9.1741    1.6157    0.0000 O.2     1  UNL1       -0.2449
      8 O           6.9825    4.1838    0.0000 O.2     1  UNL1       -0.2449
      9 O           9.2185   -4.0817    0.0000 O.2     1  UNL1       -0.4178
     10 O          10.2794   -5.3366    0.0000 O.2     1  UNL1       -0.4178
     11 O           6.1165    2.6838    0.0000 O.2     1  UNL1       -0.2449
     12 O           2.9740   -3.8087    0.0000 O.2     1  UNL1       -0.2449
     13 O          12.8176   -2.6544    0.0000 O.3     1  UNL1       -0.5028
     14 O          10.6585   -2.9056    0.0000 O.3     1  UNL1       -0.5028
     15 O          12.9693   -4.3776    0.0000 O.3     1  UNL1       -0.5009
     16 O           8.7309    6.2184    0.0000 O.3     1  UNL1       -0.5028
     17 O           6.3187   -4.7585    0.0000 O.3     1  UNL1       -0.5028
     18 O           7.8703    6.7152    0.0000 O.3     1  UNL1       -0.5028
     19 O           7.7509   -3.9122    0.0000 O.3     1  UNL1       -0.5009
     20 O           9.9250   -2.5923    0.0000 O.2     1  UNL1       -0.2445
     21 O           7.7291   -1.3925    0.0000 O.3     1  UNL1       -0.5032
     22 O           8.8913   -2.9290    0.0000 O.3     1  UNL1       -0.5009
     23 O           5.7147   -7.4861    0.0000 O.3     1  UNL1       -0.5028
     24 O           8.1819   -5.7628    0.0000 O.2     1  UNL1       -0.2445
     25 O          10.5127    3.1596    0.0000 O.3     1  UNL1       -0.5032
     26 O          10.5127    5.2079    0.0000 O.3     1  UNL1       -0.5009
     27 O           4.3305    6.7289    0.0000 O.3     1  UNL1       -0.5032
     28 O           6.1044    7.7530    0.0000 O.3     1  UNL1       -0.5009
     29 O           3.8243   -7.8576    0.0000 O.3     1  UNL1       -0.5009
     30 O           2.4559   -6.5015    0.0000 O.3     1  UNL1       -0.5032
     31 C           6.1326    0.6423    0.0000 C.3     1  UNL1        0.1729
     32 C           6.1165    1.6838    0.0000 C.3     1  UNL1        0.1840
     33 C           5.2505    2.1838    0.0000 C.3     1  UNL1        0.1938
     34 C           5.2345    0.1145    0.0000 C.3     1  UNL1        0.1361
     35 C           4.3405    1.6769    0.0000 C.3     1  UNL1        0.1981
     36 C           4.3429   -0.9235    0.0000 C.3     1  UNL1        0.1226
     37 C           8.8211    0.6801    0.0000 C.2     1  UNL1        0.3405
     38 C           6.9825    3.1838    0.0000 C.2     1  UNL1        0.3405
     39 C           6.1165    3.6838    0.0000 C.2     1  UNL1        0.3406
     40 C           9.9889   -0.0332    0.0000 C.ar    1  UNL1        0.0740
     41 C           7.8486    3.6838    0.0000 C.ar    1  UNL1        0.0740
     42 C           6.1165    4.6838    0.0000 C.ar    1  UNL1        0.0740
     43 C          10.8143   -1.1245    0.0000 C.ar    1  UNL1        0.0458
     44 C           7.8486    4.6838    0.0000 C.ar    1  UNL1        0.0458
     45 C           6.9825    5.1838    0.0000 C.ar    1  UNL1        0.0458
     46 C          10.4148   -5.0191    0.0000 C.ar    1  UNL1        0.0474
     47 C          11.1829   -2.4423    0.0000 C.ar    1  UNL1        0.0464
     48 C           9.3850   -5.9201    0.0000 C.ar    1  UNL1        0.0474
     49 C          11.0432   -3.8035    0.0000 C.ar    1  UNL1        0.0823
     50 C           3.9482   -3.5831    0.0000 C.2     1  UNL1        0.3401
     51 C           8.0967   -6.3814    0.0000 C.ar    1  UNL1        0.0823
     52 C           6.7290   -6.3389    0.0000 C.ar    1  UNL1        0.0464
     53 C           4.4999   -4.8353    0.0000 C.ar    1  UNL1        0.0740
     54 C           5.4719   -5.7985    0.0000 C.ar    1  UNL1        0.0458
     55 C          11.3967   -4.8719    0.0000 C.ar    1  UNL1        0.1854
     56 C           8.9373   -5.0339    0.0000 C.ar    1  UNL1        0.1854
     57 C           9.0346   -0.2958    0.0000 C.ar    1  UNL1       -0.0017
     58 C          11.9239   -3.1030    0.0000 C.ar    1  UNL1        0.1708
     59 C           8.7425    3.1491    0.0000 C.ar    1  UNL1       -0.0017
     60 C          10.3019   -1.9713    0.0000 C.ar    1  UNL1        0.1708
     61 C           5.2065    5.1906    0.0000 C.ar    1  UNL1       -0.0017
     62 C          12.0110   -4.0920    0.0000 C.ar    1  UNL1        0.2028
     63 C           8.7425    5.2184    0.0000 C.ar    1  UNL1        0.1708
     64 C           6.9986    6.2253    0.0000 C.ar    1  UNL1        0.1708
     65 C           7.0838   -5.4024    0.0000 C.ar    1  UNL1        0.1708
     66 C          10.0757   -3.5809    0.0000 C.ar    1  UNL1        0.3460
     67 C           7.9459   -4.8930    0.0000 C.ar    1  UNL1        0.2028
     68 C           9.1789   -5.8399    0.0000 C.ar    1  UNL1        0.3460
     69 C           8.7163   -1.2331    0.0000 C.ar    1  UNL1        0.1628
     70 C           9.3134   -2.0225    0.0000 C.ar    1  UNL1        0.2012
     71 C           5.0847   -6.7095    0.0000 C.ar    1  UNL1        0.1708
     72 C           3.5925   -5.2307    0.0000 C.ar    1  UNL1       -0.0017
     73 C           9.6486    3.6630    0.0000 C.ar    1  UNL1        0.1628
     74 C           9.6486    4.7046    0.0000 C.ar    1  UNL1        0.2012
     75 C           5.1985    6.2322    0.0000 C.ar    1  UNL1        0.1628
     76 C           6.1006    6.7530    0.0000 C.ar    1  UNL1        0.2012
     77 C           4.1135   -6.9003    0.0000 C.ar    1  UNL1        0.2012
     78 C           3.4105   -6.2036    0.0000 C.ar    1  UNL1        0.1628
     79 H           6.5689   -0.0872    0.0000 H       1  UNL1        0.0801
     80 H           6.8559    1.2644    0.0000 H       1  UNL1        0.0812
     81 H           4.5176    2.6144    0.0000 H       1  UNL1        0.0825
     82 H           5.6595   -0.6216    0.0000 H       1  UNL1        0.0670
     83 H           3.8006    1.3721    0.0000 H       1  UNL1        0.0948
     84 H           4.0663   -0.3686    0.0000 H       1  UNL1        0.0725
     85 H           4.8802   -1.2328    0.0000 H       1  UNL1        0.0725
     86 H           2.9398    1.8831    0.0000 H       1  UNL1        0.2126
     87 H           8.6092    0.1553    0.0000 H       1  UNL1        0.0664
     88 H           8.7353    2.5292    0.0000 H       1  UNL1        0.0664
     89 H           4.6732    4.8744    0.0000 H       1  UNL1        0.0664
     90 H           3.1075   -4.8445    0.0000 H       1  UNL1        0.0664
     91 H          13.3356   -2.9951    0.0000 H       1  UNL1        0.2923
     92 H          11.2443   -3.1086    0.0000 H       1  UNL1        0.2923
     93 H          13.1130   -4.9807    0.0000 H       1  UNL1        0.2924
     94 H           6.4273   -4.1481    0.0000 H       1  UNL1        0.2923
     95 H           9.2642    6.5346    0.0000 H       1  UNL1        0.2923
     96 H           7.8775    7.3352    0.0000 H       1  UNL1        0.2923
     97 H           7.1638   -3.7129    0.0000 H       1  UNL1        0.2924
     98 H           7.5087   -1.9720    0.0000 H       1  UNL1        0.2923
     99 H           8.2737   -2.9834    0.0000 H       1  UNL1        0.2924
    100 H           5.4930   -8.0651    0.0000 H       1  UNL1        0.2923
    101 H          11.0508    3.4676    0.0000 H       1  UNL1        0.2923
    102 H          11.0508    4.9000    0.0000 H       1  UNL1        0.2924
    103 H           3.7948    6.4168    0.0000 H       1  UNL1        0.2923
    104 H           5.5687    8.0651    0.0000 H       1  UNL1        0.2924
    105 H           3.2207   -7.9990    0.0000 H       1  UNL1        0.2924
    106 H           2.0000   -6.0813    0.0000 H       1  UNL1        0.2923
@<TRIPOS>BOND
     1     1    34    1
     2     1    35    1
     3     2    31    1
     4     2    37    1
     5     3    32    1
     6     3    38    1
     7     4    33    1
     8     4    39    1
     9     5    35    1
    10     5    86    1
    11     6    36    1
    12     6    50    1
    13     7    37    2
    14     8    38    2
    15     9    56   ar
    16     9    66   ar
    17    10    55   ar
    18    10    68   ar
    19    11    39    2
    20    12    50    2
    21    13    58    1
    22    13    91    1
    23    14    60    1
    24    14    92    1
    25    15    62    1
    26    15    93    1
    27    16    63    1
    28    16    95    1
    29    17    65    1
    30    17    94    1
    31    18    64    1
    32    18    96    1
    33    19    67    1
    34    19    97    1
    35    20    66    2
    36    21    69    1
    37    21    98    1
    38    22    70    1
    39    22    99    1
    40    23    71    1
    41    23   100    1
    42    24    68    2
    43    25    73    1
    44    25   101    1
    45    26    74    1
    46    26   102    1
    47    27    75    1
    48    27   103    1
    49    28    76    1
    50    28   104    1
    51    29    77    1
    52    29   105    1
    53    30    78    1
    54    30   106    1
    55    31    32    1
    56    31    34    1
    57    31    79    1
    58    32    33    1
    59    32    80    1
    60    33    35    1
    61    33    81    1
    62    34    36    1
    63    34    82    1
    64    35    83    1
    65    36    84    1
    66    36    85    1
    67    37    40    1
    68    38    41    1
    69    39    42    1
    70    40    43   ar
    71    40    57   ar
    72    41    44   ar
    73    41    59   ar
    74    42    45   ar
    75    42    61   ar
    76    43    47    1
    77    43    60   ar
    78    44    45    1
    79    44    63   ar
    80    45    64   ar
    81    46    48   ar
    82    46    49   ar
    83    46    55   ar
    84    47    49   ar
    85    47    58   ar
    86    48    51   ar
    87    48    56   ar
    88    49    66   ar
    89    50    53    1
    90    51    52   ar
    91    51    68   ar
    92    52    54    1
    93    52    65   ar
    94    53    54   ar
    95    53    72   ar
    96    54    71   ar
    97    55    62   ar
    98    56    67   ar
    99    57    69   ar
   100    57    87    1
   101    58    62   ar
   102    59    73   ar
   103    59    88    1
   104    60    70   ar
   105    61    75   ar
   106    61    89    1
   107    63    74   ar
   108    64    76   ar
   109    65    67   ar
   110    69    70   ar
   111    71    77   ar
   112    72    78   ar
   113    72    90    1
   114    73    74   ar
   115    75    76   ar
   116    77    78   ar
