@<TRIPOS>MOLECULE
IMPHY016227
 39 38 0 0 0
SMALL
GASTEIGER

@<TRIPOS>ATOM
      1 O           7.1962    1.3450    0.0000 O.3     1  UNL1       -0.3914
      2 O           4.5981   -0.1550    0.0000 O.3     1  UNL1       -0.4641
      3 O           3.7320    1.3450    0.0000 O.2     1  UNL1       -0.2506
      4 C           6.3301   -0.1550    0.0000 C.3     1  UNL1        0.0190
      5 C           7.1962    0.3450    0.0000 C.3     1  UNL1        0.0611
      6 C           6.3301   -1.1550    0.0000 C.3     1  UNL1       -0.0476
      7 C           8.0622   -0.1550    0.0000 C.3     1  UNL1       -0.0267
      8 C           5.4641    0.3450    0.0000 C.3     1  UNL1        0.0976
      9 C           8.9282    0.3450    0.0000 C.3     1  UNL1       -0.0536
     10 C           5.4641   -1.6550    0.0000 C.3     1  UNL1       -0.0648
     11 C           9.7942   -0.1550    0.0000 C.3     1  UNL1       -0.0652
     12 C           2.8660   -0.1550    0.0000 C.3     1  UNL1        0.0508
     13 C           3.7320    0.3450    0.0000 C.2     1  UNL1        0.3097
     14 C           2.0000    0.3450    0.0000 C.3     1  UNL1       -0.0525
     15 C           2.8660   -1.1550    0.0000 C.3     1  UNL1       -0.0525
     16 H           6.8671   -0.4650    0.0000 H       1  UNL1        0.0359
     17 H           6.6592    0.6550    0.0000 H       1  UNL1        0.0597
     18 H           6.5422   -1.7376    0.0000 H       1  UNL1        0.0267
     19 H           6.9407   -1.0473    0.0000 H       1  UNL1        0.0267
     20 H           7.6636   -0.6299    0.0000 H       1  UNL1        0.0290
     21 H           8.4607   -0.6299    0.0000 H       1  UNL1        0.0290
     22 H           5.8626    0.8199    0.0000 H       1  UNL1        0.0701
     23 H           5.0656    0.8199    0.0000 H       1  UNL1        0.0701
     24 H           9.3267    0.8199    0.0000 H       1  UNL1        0.0263
     25 H           8.5297    0.8199    0.0000 H       1  UNL1        0.0263
     26 H           5.1541   -1.1181    0.0000 H       1  UNL1        0.0230
     27 H           4.9272   -1.9650    0.0000 H       1  UNL1        0.0230
     28 H           5.7741   -2.1919    0.0000 H       1  UNL1        0.0230
     29 H           7.7331    1.6550    0.0000 H       1  UNL1        0.2098
     30 H           9.4842   -0.6919    0.0000 H       1  UNL1        0.0230
     31 H          10.3312   -0.4650    0.0000 H       1  UNL1        0.0230
     32 H          10.1042    0.3819    0.0000 H       1  UNL1        0.0230
     33 H           2.8660    0.4650    0.0000 H       1  UNL1        0.0408
     34 H           2.3100    0.8819    0.0000 H       1  UNL1        0.0237
     35 H           1.4631    0.6550    0.0000 H       1  UNL1        0.0237
     36 H           1.6900   -0.1919    0.0000 H       1  UNL1        0.0237
     37 H           2.2460   -1.1550    0.0000 H       1  UNL1        0.0237
     38 H           2.8660   -1.7750    0.0000 H       1  UNL1        0.0237
     39 H           3.4860   -1.1550    0.0000 H       1  UNL1        0.0237
@<TRIPOS>BOND
     1     1     5    1
     2     1    29    1
     3     2     8    1
     4     2    13    1
     5     3    13    2
     6     4     5    1
     7     4     6    1
     8     4     8    1
     9     4    16    1
    10     5     7    1
    11     5    17    1
    12     6    10    1
    13     6    18    1
    14     6    19    1
    15     7     9    1
    16     7    20    1
    17     7    21    1
    18     8    22    1
    19     8    23    1
    20     9    11    1
    21     9    24    1
    22     9    25    1
    23    10    26    1
    24    10    27    1
    25    10    28    1
    26    11    30    1
    27    11    31    1
    28    11    32    1
    29    12    13    1
    30    12    14    1
    31    12    15    1
    32    12    33    1
    33    14    34    1
    34    14    35    1
    35    14    36    1
    36    15    37    1
    37    15    38    1
    38    15    39    1
