@<TRIPOS>MOLECULE
IMPHY016772
 27 28 0 0 0
SMALL
GASTEIGER

@<TRIPOS>ATOM
      1 O           3.4030   -2.0000    0.0000 O.2     1  UNL1       -0.2752
      2 N           2.5369   -0.5000    0.0000 N.am    1  UNL1       -0.2917
      3 C           4.2690   -0.5000    0.0000 C.3     1  UNL1        0.0449
      4 C           4.2690    0.5000    0.0000 C.3     1  UNL1       -0.0074
      5 C           5.2152   -0.8047    0.0000 C.3     1  UNL1       -0.0322
      6 C           5.2152    0.8047    0.0000 C.3     1  UNL1       -0.0455
      7 C           5.7988    0.0000    0.0000 C.3     1  UNL1       -0.0492
      8 C           3.4030    1.0000    0.0000 C.2     1  UNL1       -0.0550
      9 C           3.4030   -1.0000    0.0000 C.2     1  UNL1        0.2207
     10 C           5.5259   -1.7552    0.0000 C.3     1  UNL1       -0.0617
     11 C           2.5369    0.5000    0.0000 C.2     1  UNL1       -0.0045
     12 C           3.4030    2.0000    0.0000 C.3     1  UNL1       -0.0420
     13 H           4.3346   -1.1165    0.0000 H       1  UNL1        0.0403
     14 H           4.3346    1.1165    0.0000 H       1  UNL1        0.0353
     15 H           4.7778   -1.2441    0.0000 H       1  UNL1        0.0306
     16 H           5.7526    1.1140    0.0000 H       1  UNL1        0.0271
     17 H           4.9642    1.3716    0.0000 H       1  UNL1        0.0271
     18 H           6.2597   -0.4147    0.0000 H       1  UNL1        0.0268
     19 H           6.2597    0.4147    0.0000 H       1  UNL1        0.0268
     20 H           4.9366   -1.9479    0.0000 H       1  UNL1        0.0233
     21 H           5.7185   -2.3446    0.0000 H       1  UNL1        0.0233
     22 H           6.1152   -1.5626    0.0000 H       1  UNL1        0.0233
     23 H           2.0000    0.8100    0.0000 H       1  UNL1        0.0782
     24 H           2.0000   -0.8100    0.0000 H       1  UNL1        0.1542
     25 H           4.0230    2.0000    0.0000 H       1  UNL1        0.0275
     26 H           3.4030    2.6200    0.0000 H       1  UNL1        0.0275
     27 H           2.7830    2.0000    0.0000 H       1  UNL1        0.0275
@<TRIPOS>BOND
     1     1     9    2
     2     2     9   am
     3     2    11    1
     4     2    24    1
     5     3     4    1
     6     3     5    1
     7     3     9    1
     8     3    13    1
     9     4     6    1
    10     4     8    1
    11     4    14    1
    12     5     7    1
    13     5    10    1
    14     5    15    1
    15     6     7    1
    16     6    16    1
    17     6    17    1
    18     7    18    1
    19     7    19    1
    20     8    11    2
    21     8    12    1
    22    10    20    1
    23    10    21    1
    24    10    22    1
    25    11    23    1
    26    12    25    1
    27    12    26    1
    28    12    27    1
