@<TRIPOS>MOLECULE
IMPHY002564
 133 141 0 0 0
SMALL
GASTEIGER

@<TRIPOS>ATOM
      1 O           7.8359    4.0502    0.0000 O.3     1  UNL1       -0.4545
      2 O           9.6060    3.0534    0.0000 O.3     1  UNL1       -0.3881
      3 O           5.8450    4.0162    0.0000 O.3     1  UNL1       -0.4604
      4 O           5.2378    2.5502    0.0000 O.3     1  UNL1       -0.3942
      5 O           6.0010   -5.6149    0.0000 O.3     1  UNL1       -0.4318
      6 O           5.1350   -4.1149    0.0000 O.2     1  UNL1       -0.2501
      7 O           6.8156    5.7306    0.0000 O.2     1  UNL1       -0.2449
      8 O           4.2690   -5.6149    0.0000 O.3     1  UNL1       -0.3312
      9 O           6.8450    4.0162    0.0000 O.2     1  UNL1       -0.2449
     10 O           6.0010   -7.6149    0.0000 O.3     1  UNL1       -0.3829
     11 O           4.2690   -8.6149    0.0000 O.3     1  UNL1       -0.3864
     12 O           2.5369   -7.6149    0.0000 O.3     1  UNL1       -0.3865
     13 O           7.3419    8.3844    0.0000 O.3     1  UNL1       -0.5028
     14 O           6.3481    8.3844    0.0000 O.3     1  UNL1       -0.5028
     15 O          10.4142    6.6263    0.0000 O.3     1  UNL1       -0.5032
     16 O           2.5369   -4.6149    0.0000 O.3     1  UNL1       -0.3924
     17 O           9.3901    8.4002    0.0000 O.3     1  UNL1       -0.5009
     18 O           3.2757    6.6263    0.0000 O.3     1  UNL1       -0.5032
     19 O           4.2999    8.4002    0.0000 O.3     1  UNL1       -0.5009
     20 C           6.9205   -0.6465    0.0000 C.3     1  UNL1       -0.0194
     21 C           7.8518    0.9810    0.0000 C.3     1  UNL1       -0.0224
     22 C           7.8602   -0.1040    0.0000 C.3     1  UNL1       -0.0257
     23 C           6.9031   -1.7765    0.0000 C.3     1  UNL1       -0.0051
     24 C           6.9538    1.5087    0.0000 C.3     1  UNL1       -0.0209
     25 C           5.9851   -0.0968    0.0000 C.3     1  UNL1       -0.0463
     26 C           6.9698    2.5502    0.0000 C.3     1  UNL1        0.0705
     27 C           6.0018    0.9881    0.0000 C.3     1  UNL1       -0.0484
     28 C           7.8775   -2.3491    0.0000 C.2     1  UNL1       -0.0629
     29 C           8.7539    1.5018    0.0000 C.3     1  UNL1       -0.0174
     30 C           8.8475   -0.6539    0.0000 C.3     1  UNL1       -0.0306
     31 C           7.8866   -3.5263    0.0000 C.3     1  UNL1       -0.0031
     32 C           5.8703   -2.3414    0.0000 C.3     1  UNL1       -0.0424
     33 C           6.8671   -4.1149    0.0000 C.3     1  UNL1        0.0744
     34 C           7.8359    3.0502    0.0000 C.3     1  UNL1        0.1401
     35 C           5.9357   -0.8201    0.0000 C.3     1  UNL1       -0.0585
     36 C           5.8521   -3.5185    0.0000 C.3     1  UNL1       -0.0359
     37 C           8.7459    2.5434    0.0000 C.3     1  UNL1        0.0933
     38 C           8.7140    0.4743    0.0000 C.3     1  UNL1       -0.0589
     39 C           8.8562   -1.7840    0.0000 C.2     1  UNL1       -0.0836
     40 C           5.9197   -1.5953    0.0000 C.3     1  UNL1       -0.0553
     41 C           8.9578   -4.1230    0.0000 C.3     1  UNL1       -0.0403
     42 C           6.8482   -5.3410    0.0000 C.3     1  UNL1       -0.0362
     43 C           8.9673   -5.3492    0.0000 C.3     1  UNL1       -0.0343
     44 C           6.1038    3.0502    0.0000 C.3     1  UNL1        0.1042
     45 C           6.1038    2.0502    0.0000 C.3     1  UNL1        0.0567
     46 C           7.9053   -5.9623    0.0000 C.3     1  UNL1       -0.0468
     47 C           6.0010   -4.6149    0.0000 C.2     1  UNL1        0.3161
     48 C           9.9673   -5.3453    0.0000 C.3     1  UNL1       -0.0598
     49 C           9.4706   -6.2133    0.0000 C.3     1  UNL1       -0.0598
     50 C           7.3450    4.8822    0.0000 C.2     1  UNL1        0.3404
     51 C           6.3450    4.8822    0.0000 C.2     1  UNL1        0.3400
     52 C           5.1350   -6.1149    0.0000 C.3     1  UNL1        0.2337
     53 C           7.8450    5.7482    0.0000 C.ar    1  UNL1        0.0740
     54 C           5.1350   -7.1149    0.0000 C.3     1  UNL1        0.1455
     55 C           5.8450    5.7482    0.0000 C.ar    1  UNL1        0.0740
     56 C           7.3450    6.6142    0.0000 C.ar    1  UNL1        0.0458
     57 C           4.2690   -7.6149    0.0000 C.3     1  UNL1        0.1152
     58 C           6.3450    6.6142    0.0000 C.ar    1  UNL1        0.0458
     59 C           3.4030   -6.1149    0.0000 C.3     1  UNL1        0.1140
     60 C           8.8865    5.7322    0.0000 C.ar    1  UNL1       -0.0017
     61 C           3.4030   -7.1149    0.0000 C.3     1  UNL1        0.1120
     62 C           4.8035    5.7322    0.0000 C.ar    1  UNL1       -0.0017
     63 C           7.8518    7.5242    0.0000 C.ar    1  UNL1        0.1708
     64 C           5.8381    7.5242    0.0000 C.ar    1  UNL1        0.1708
     65 C           9.4142    6.6302    0.0000 C.ar    1  UNL1        0.1628
     66 C           2.5369   -5.6149    0.0000 C.3     1  UNL1        0.0731
     67 C           8.8934    7.5323    0.0000 C.ar    1  UNL1        0.2012
     68 C           4.2757    6.6302    0.0000 C.ar    1  UNL1        0.1628
     69 C           4.7965    7.5323    0.0000 C.ar    1  UNL1        0.2012
     70 H           8.5913    0.3295    0.0000 H       1  UNL1        0.0315
     71 H           7.4943    1.8125    0.0000 H       1  UNL1        0.0314
     72 H           5.3760    0.0187    0.0000 H       1  UNL1        0.0271
     73 H           5.7671   -0.6772    0.0000 H       1  UNL1        0.0271
     74 H           5.8018    1.5750    0.0000 H       1  UNL1        0.0268
     75 H           5.3894    0.8914    0.0000 H       1  UNL1        0.0268
     76 H           8.9674    0.9197    0.0000 H       1  UNL1        0.0297
     77 H           9.3639    1.6126    0.0000 H       1  UNL1        0.0297
     78 H           9.4592   -0.7553    0.0000 H       1  UNL1        0.0310
     79 H           9.0521   -0.0686    0.0000 H       1  UNL1        0.0310
     80 H           8.6177   -3.0928    0.0000 H       1  UNL1        0.0357
     81 H           5.6702   -1.7545    0.0000 H       1  UNL1        0.0274
     82 H           5.2579   -2.4380    0.0000 H       1  UNL1        0.0274
     83 H           8.5687    3.4809    0.0000 H       1  UNL1        0.0768
     84 H           5.8281   -0.2095    0.0000 H       1  UNL1        0.0235
     85 H           5.3251   -0.9277    0.0000 H       1  UNL1        0.0235
     86 H           6.0434   -1.4307    0.0000 H       1  UNL1        0.0235
     87 H           5.2430   -3.4030    0.0000 H       1  UNL1        0.0276
     88 H           5.6341   -4.0989    0.0000 H       1  UNL1        0.0276
     89 H           9.2858    2.2386    0.0000 H       1  UNL1        0.0630
     90 H           8.3998   -0.0602    0.0000 H       1  UNL1        0.0235
     91 H           9.2485    0.1602    0.0000 H       1  UNL1        0.0235
     92 H           9.0281    1.0088    0.0000 H       1  UNL1        0.0235
     93 H           9.3944   -2.0920    0.0000 H       1  UNL1        0.0572
     94 H           6.0320   -0.9855    0.0000 H       1  UNL1        0.0238
     95 H           5.3100   -1.4829    0.0000 H       1  UNL1        0.0238
     96 H           5.8073   -2.2050    0.0000 H       1  UNL1        0.0238
     97 H           9.5695   -4.2244    0.0000 H       1  UNL1        0.0276
     98 H           9.1624   -3.5377    0.0000 H       1  UNL1        0.0276
     99 H           6.2390   -5.2255    0.0000 H       1  UNL1        0.0276
    100 H           6.6301   -5.9214    0.0000 H       1  UNL1        0.0276
    101 H           5.4838    3.0502    0.0000 H       1  UNL1        0.0705
    102 H           5.9433    2.4514    0.0000 H       1  UNL1        0.0705
    103 H           5.7053    1.5753    0.0000 H       1  UNL1        0.0565
    104 H           6.5023    1.5753    0.0000 H       1  UNL1        0.0565
    105 H           7.5044   -6.4352    0.0000 H       1  UNL1        0.0271
    106 H           8.3026   -6.4382    0.0000 H       1  UNL1        0.0271
    107 H          10.1465    2.7496    0.0000 H       1  UNL1        0.2099
    108 H           9.9697   -5.9653    0.0000 H       1  UNL1        0.0235
    109 H          10.5873   -5.3429    0.0000 H       1  UNL1        0.0235
    110 H           9.9649   -4.7253    0.0000 H       1  UNL1        0.0235
    111 H           8.9349   -6.5253    0.0000 H       1  UNL1        0.0235
    112 H           9.7827   -6.7490    0.0000 H       1  UNL1        0.0235
    113 H          10.0064   -5.9012    0.0000 H       1  UNL1        0.0235
    114 H           4.7008    2.2402    0.0000 H       1  UNL1        0.2094
    115 H           5.1350   -5.4949    0.0000 H       1  UNL1        0.1085
    116 H           5.1350   -7.7349    0.0000 H       1  UNL1        0.0683
    117 H           3.7320   -7.9249    0.0000 H       1  UNL1        0.0648
    118 H           3.4030   -5.4949    0.0000 H       1  UNL1        0.0647
    119 H           9.1903    5.1917    0.0000 H       1  UNL1        0.0664
    120 H           2.8660   -6.8049    0.0000 H       1  UNL1        0.0647
    121 H           4.4997    5.1917    0.0000 H       1  UNL1        0.0664
    122 H           6.5380   -7.3049    0.0000 H       1  UNL1        0.2102
    123 H           1.9264   -5.5072    0.0000 H       1  UNL1        0.0584
    124 H           2.3249   -6.1975    0.0000 H       1  UNL1        0.0584
    125 H           3.7320   -8.9249    0.0000 H       1  UNL1        0.2100
    126 H           2.0000   -7.3049    0.0000 H       1  UNL1        0.2100
    127 H           7.6456    8.9249    0.0000 H       1  UNL1        0.2923
    128 H           6.0444    8.9249    0.0000 H       1  UNL1        0.2923
    129 H          10.7222    6.0882    0.0000 H       1  UNL1        0.2923
    130 H           2.0000   -4.3049    0.0000 H       1  UNL1        0.2095
    131 H          10.0101    8.4026    0.0000 H       1  UNL1        0.2924
    132 H           2.9678    6.0882    0.0000 H       1  UNL1        0.2923
    133 H           3.6799    8.4026    0.0000 H       1  UNL1        0.2924
@<TRIPOS>BOND
     1     1    34    1
     2     1    50    1
     3    37     2    1
     4     2   107    1
     5     3    44    1
     6     3    51    1
     7     4    45    1
     8     4   114    1
     9     5    47    1
    10    52     5    1
    11     6    47    2
    12     7    50    2
    13     8    52    1
    14     8    59    1
    15     9    51    2
    16    54    10    1
    17    10   122    1
    18    57    11    1
    19    11   125    1
    20    61    12    1
    21    12   126    1
    22    13    63    1
    23    13   127    1
    24    14    64    1
    25    14   128    1
    26    15    65    1
    27    15   129    1
    28    16    66    1
    29    16   130    1
    30    17    67    1
    31    17   131    1
    32    18    68    1
    33    18   132    1
    34    19    69    1
    35    19   133    1
    36    20    22    1
    37    20    23    1
    38    20    25    1
    39    20    35    1
    40    21    22    1
    41    21    24    1
    42    21    29    1
    43    21    38    1
    44    22    30    1
    45    22    70    1
    46    23    28    1
    47    23    32    1
    48    23    40    1
    49    24    26    1
    50    24    27    1
    51    24    71    1
    52    25    27    1
    53    25    72    1
    54    25    73    1
    55    26    34    1
    56    26    44    1
    57    26    45    1
    58    27    74    1
    59    27    75    1
    60    28    31    1
    61    28    39    2
    62    29    37    1
    63    29    76    1
    64    29    77    1
    65    30    39    1
    66    30    78    1
    67    30    79    1
    68    31    33    1
    69    31    41    1
    70    31    80    1
    71    32    36    1
    72    32    81    1
    73    32    82    1
    74    33    36    1
    75    33    42    1
    76    33    47    1
    77    34    37    1
    78    34    83    1
    79    35    84    1
    80    35    85    1
    81    35    86    1
    82    36    87    1
    83    36    88    1
    84    37    89    1
    85    38    90    1
    86    38    91    1
    87    38    92    1
    88    39    93    1
    89    40    94    1
    90    40    95    1
    91    40    96    1
    92    41    43    1
    93    41    97    1
    94    41    98    1
    95    42    46    1
    96    42    99    1
    97    42   100    1
    98    43    46    1
    99    43    48    1
   100    43    49    1
   101    44   101    1
   102    44   102    1
   103    45   103    1
   104    45   104    1
   105    46   105    1
   106    46   106    1
   107    48   108    1
   108    48   109    1
   109    48   110    1
   110    49   111    1
   111    49   112    1
   112    49   113    1
   113    50    53    1
   114    51    55    1
   115    52    54    1
   116    52   115    1
   117    53    56   ar
   118    53    60   ar
   119    54    57    1
   120    54   116    1
   121    55    58   ar
   122    55    62   ar
   123    56    58    1
   124    56    63   ar
   125    57    61    1
   126    57   117    1
   127    58    64   ar
   128    59    61    1
   129    59    66    1
   130    59   118    1
   131    60    65   ar
   132    60   119    1
   133    61   120    1
   134    62    68   ar
   135    62   121    1
   136    63    67   ar
   137    64    69   ar
   138    65    67   ar
   139    66   123    1
   140    66   124    1
   141    68    69   ar
