@<TRIPOS>MOLECULE
IMPHY001623
 26 29 0 0 0
SMALL
GASTEIGER

@<TRIPOS>ATOM
      1 O           2.0000   -0.8530    0.0000 O.2     1  UNL1       -0.2673
      2 O           5.5933    2.5740    0.0000 O.3     1  UNL1       -0.5067
      3 N           3.7602   -1.0412    0.0000 N.ar    1  UNL1       -0.2743
      4 N           5.3799   -3.1121    0.0000 N.ar    1  UNL1       -0.2535
      5 C           4.5692   -1.6290    0.0000 C.ar    1  UNL1        0.0831
      6 C           5.3782   -1.0412    0.0000 C.ar    1  UNL1        0.0117
      7 C           4.0692   -0.0901    0.0000 C.ar    1  UNL1        0.0581
      8 C           5.0692   -0.0901    0.0000 C.ar    1  UNL1        0.0116
      9 C           4.4763   -2.6664    0.0000 C.ar    1  UNL1        0.0885
     10 C           2.8022   -1.4501    0.0000 C.ar    1  UNL1        0.2563
     11 C           5.6038    0.8038    0.0000 C.ar    1  UNL1       -0.0104
     12 C           3.5345    0.8038    0.0000 C.ar    1  UNL1       -0.0337
     13 C           6.2345   -1.5722    0.0000 C.ar    1  UNL1       -0.0338
     14 C           3.5280   -3.0974    0.0000 C.ar    1  UNL1       -0.0291
     15 C           2.6853   -2.4852    0.0000 C.ar    1  UNL1        0.0054
     16 C           5.0900    1.7099    0.0000 C.ar    1  UNL1        0.1176
     17 C           4.0484    1.7099    0.0000 C.ar    1  UNL1       -0.0182
     18 C           6.2353   -2.5797    0.0000 C.ar    1  UNL1        0.0290
     19 H           6.2238    0.7967    0.0000 H       1  UNL1        0.0661
     20 H           2.9146    0.7967    0.0000 H       1  UNL1        0.0640
     21 H           6.7761   -1.2704    0.0000 H       1  UNL1        0.0639
     22 H           3.4656   -3.7143    0.0000 H       1  UNL1        0.0641
     23 H           2.1179   -2.7352    0.0000 H       1  UNL1        0.0672
     24 H           3.7363    2.2456    0.0000 H       1  UNL1        0.0655
     25 H           6.7774   -2.8806    0.0000 H       1  UNL1        0.0830
     26 H           5.2854    3.1121    0.0000 H       1  UNL1        0.2921
@<TRIPOS>BOND
     1     1    10    2
     2     2    16    1
     3     2    26    1
     4     3     5   ar
     5     3     7   ar
     6     3    10   ar
     7     4     9   ar
     8     4    18   ar
     9     5     6   ar
    10     5     9   ar
    11     6     8   ar
    12     6    13   ar
    13     7     8   ar
    14     7    12   ar
    15     8    11   ar
    16     9    14   ar
    17    10    15   ar
    18    11    16   ar
    19    11    19    1
    20    12    17   ar
    21    12    20    1
    22    13    18   ar
    23    13    21    1
    24    14    15   ar
    25    14    22    1
    26    15    23    1
    27    16    17   ar
    28    17    24    1
    29    18    25    1
