@<TRIPOS>MOLECULE
IMPHY013145
 55 57 0 0 0
SMALL
GASTEIGER

@<TRIPOS>ATOM
      1 O           6.3981   -0.9370    0.0000 O.3     1  UNL1       -0.3883
      2 C           3.8000   -0.4370    0.0000 C.3     1  UNL1       -0.0233
      3 C           4.6660    0.0630    0.0000 C.3     1  UNL1       -0.0064
      4 C           3.8000   -1.4370    0.0000 C.3     1  UNL1       -0.0300
      5 C           5.5321   -0.4370    0.0000 C.3     1  UNL1        0.0702
      6 C           2.9061   -1.9717    0.0000 C.3     1  UNL1       -0.0315
      7 C           4.6660   -1.9370    0.0000 C.3     1  UNL1       -0.0466
      8 C           2.9061    0.0976    0.0000 C.3     1  UNL1       -0.0470
      9 C           5.5321   -1.4370    0.0000 C.3     1  UNL1       -0.0234
     10 C           4.6500    1.1045    0.0000 C.3     1  UNL1       -0.0463
     11 C           6.4421    0.0698    0.0000 C.3     1  UNL1       -0.0149
     12 C           2.0000   -1.4578    0.0000 C.3     1  UNL1       -0.0476
     13 C           6.4501    1.1114    0.0000 C.3     1  UNL1       -0.0117
     14 C           2.0000   -0.4162    0.0000 C.3     1  UNL1       -0.0521
     15 C           3.8000    0.5630    0.0000 C.3     1  UNL1       -0.0589
     16 C           5.5480    1.6322    0.0000 C.3     1  UNL1       -0.0437
     17 C           2.4161   -2.8434    0.0000 C.3     1  UNL1       -0.0595
     18 C           3.4160   -2.8319    0.0000 C.3     1  UNL1       -0.0595
     19 C           7.4501    1.1076    0.0000 C.3     1  UNL1       -0.0560
     20 C           6.9534    1.9755    0.0000 C.2     1  UNL1       -0.0851
     21 C           6.4568    2.8434    0.0000 C.2     1  UNL1       -0.1021
     22 H           5.3989    0.4936    0.0000 H       1  UNL1        0.0334
     23 H           3.8066   -2.2870    0.0000 H       1  UNL1        0.0311
     24 H           4.2675   -2.4120    0.0000 H       1  UNL1        0.0269
     25 H           5.0646   -2.4120    0.0000 H       1  UNL1        0.0269
     26 H           3.3107    0.5674    0.0000 H       1  UNL1        0.0271
     27 H           2.5124    0.5766    0.0000 H       1  UNL1        0.0271
     28 H           5.7441   -2.0196    0.0000 H       1  UNL1        0.0293
     29 H           6.1426   -1.3294    0.0000 H       1  UNL1        0.0293
     30 H           4.4319    1.6849    0.0000 H       1  UNL1        0.0269
     31 H           4.0408    0.9890    0.0000 H       1  UNL1        0.0269
     32 H           6.6466   -0.5155    0.0000 H       1  UNL1        0.0301
     33 H           7.0537    0.1712    0.0000 H       1  UNL1        0.0301
     34 H           1.3891   -1.3518    0.0000 H       1  UNL1        0.0271
     35 H           1.7909   -2.0415    0.0000 H       1  UNL1        0.0271
     36 H           1.7909    0.1675    0.0000 H       1  UNL1        0.0266
     37 H           1.3891   -0.5223    0.0000 H       1  UNL1        0.0266
     38 H           4.4200    0.5630    0.0000 H       1  UNL1        0.0235
     39 H           3.8000    1.1830    0.0000 H       1  UNL1        0.0235
     40 H           3.1800    0.5630    0.0000 H       1  UNL1        0.0235
     41 H           5.9453    2.1082    0.0000 H       1  UNL1        0.0274
     42 H           5.1470    2.1051    0.0000 H       1  UNL1        0.0274
     43 H           1.8756   -2.5397    0.0000 H       1  UNL1        0.0235
     44 H           2.1123   -3.3839    0.0000 H       1  UNL1        0.0235
     45 H           2.9566   -3.1472    0.0000 H       1  UNL1        0.0235
     46 H           2.8827   -3.1481    0.0000 H       1  UNL1        0.0235
     47 H           3.7322   -3.3652    0.0000 H       1  UNL1        0.0235
     48 H           3.9494   -2.5157    0.0000 H       1  UNL1        0.0235
     49 H           6.3981   -1.5570    0.0000 H       1  UNL1        0.2102
     50 H           7.4477    0.4876    0.0000 H       1  UNL1        0.0238
     51 H           8.0701    1.1052    0.0000 H       1  UNL1        0.0238
     52 H           7.4525    1.7276    0.0000 H       1  UNL1        0.0238
     53 H           7.5734    1.9731    0.0000 H       1  UNL1        0.0572
     54 H           6.7688    3.3792    0.0000 H       1  UNL1        0.0532
     55 H           5.8368    2.8458    0.0000 H       1  UNL1        0.0532
@<TRIPOS>BOND
     1     5     1    1
     2     1    49    1
     3     2     3    1
     4     2     4    1
     5     2     8    1
     6     2    15    1
     7     3     5    1
     8     3    10    1
     9     3    22    1
    10     4     6    1
    11     4     7    1
    12     4    23    1
    13     5     9    1
    14     5    11    1
    15     6    12    1
    16     6    17    1
    17     6    18    1
    18     7     9    1
    19     7    24    1
    20     7    25    1
    21     8    14    1
    22     8    26    1
    23     8    27    1
    24     9    28    1
    25     9    29    1
    26    10    16    1
    27    10    30    1
    28    10    31    1
    29    11    13    1
    30    11    32    1
    31    11    33    1
    32    12    14    1
    33    12    34    1
    34    12    35    1
    35    13    16    1
    36    13    19    1
    37    13    20    1
    38    14    36    1
    39    14    37    1
    40    15    38    1
    41    15    39    1
    42    15    40    1
    43    16    41    1
    44    16    42    1
    45    17    43    1
    46    17    44    1
    47    17    45    1
    48    18    46    1
    49    18    47    1
    50    18    48    1
    51    19    50    1
    52    19    51    1
    53    19    52    1
    54    20    21    2
    55    20    53    1
    56    21    54    1
    57    21    55    1
