@<TRIPOS>MOLECULE
IMPHY000322
 45 50 0 0 0
SMALL
GASTEIGER

@<TRIPOS>ATOM
      1 O           2.4608   -0.7545    0.0000 O.3     1  UNL1       -0.3849
      2 O           2.1722    1.6096    0.0000 O.3     1  UNL1       -0.4522
      3 O           2.9992    3.0679    0.0000 O.3     1  UNL1       -0.4526
      4 O           7.8725   -1.1950    0.0000 O.3     1  UNL1       -0.4526
      5 O           7.8725   -2.8715    0.0000 O.3     1  UNL1       -0.4526
      6 N           3.3548   -1.5332    0.0000 N.3     1  UNL1       -0.2928
      7 C           4.2208   -1.0332    0.0000 C.3     1  UNL1        0.0816
      8 C           3.4118   -0.4455    0.0000 C.3     1  UNL1        0.1066
      9 C           5.0298   -0.4455    0.0000 C.3     1  UNL1       -0.0018
     10 C           5.0868   -1.5332    0.0000 C.ar    1  UNL1       -0.0172
     11 C           3.7208    0.5056    0.0000 C.ar    1  UNL1        0.0317
     12 C           4.7208    0.5056    0.0000 C.ar    1  UNL1       -0.0358
     13 C           3.3548   -2.5332    0.0000 C.3     1  UNL1        0.0035
     14 C           5.0868   -2.5332    0.0000 C.ar    1  UNL1       -0.0374
     15 C           4.2208   -3.0332    0.0000 C.3     1  UNL1       -0.0144
     16 C           2.4888   -2.0332    0.0000 C.3     1  UNL1       -0.0118
     17 C           3.1862    1.3995    0.0000 C.ar    1  UNL1        0.1722
     18 C           5.9808   -0.9986    0.0000 C.ar    1  UNL1       -0.0108
     19 C           5.2555    1.3995    0.0000 C.ar    1  UNL1       -0.0545
     20 C           5.9808   -3.0679    0.0000 C.ar    1  UNL1       -0.0126
     21 C           3.7000    2.3056    0.0000 C.ar    1  UNL1        0.1666
     22 C           6.8869   -1.5124    0.0000 C.ar    1  UNL1        0.1666
     23 C           6.8869   -2.5541    0.0000 C.ar    1  UNL1        0.1665
     24 C           4.7416    2.3056    0.0000 C.ar    1  UNL1       -0.0159
     25 C           2.0570    2.6387    0.0000 C.3     1  UNL1        0.2332
     26 C           8.4804   -2.0332    0.0000 C.3     1  UNL1        0.2332
     27 H           2.9734   -0.0071    0.0000 H       1  UNL1        0.0667
     28 H           5.3398   -0.9824    0.0000 H       1  UNL1        0.0335
     29 H           5.5962   -0.1933    0.0000 H       1  UNL1        0.0335
     30 H           2.7442   -2.4256    0.0000 H       1  UNL1        0.0430
     31 H           3.1428   -3.1159    0.0000 H       1  UNL1        0.0430
     32 H           3.8223   -3.5082    0.0000 H       1  UNL1        0.0326
     33 H           4.6194   -3.5082    0.0000 H       1  UNL1        0.0326
     34 H           2.1788   -1.4963    0.0000 H       1  UNL1        0.0391
     35 H           1.9518   -2.3432    0.0000 H       1  UNL1        0.0391
     36 H           2.7988   -2.5702    0.0000 H       1  UNL1        0.0391
     37 H           5.9736   -0.3786    0.0000 H       1  UNL1        0.0659
     38 H           5.8754    1.3924    0.0000 H       1  UNL1        0.0622
     39 H           2.0000   -0.3396    0.0000 H       1  UNL1        0.2103
     40 H           5.9736   -3.6879    0.0000 H       1  UNL1        0.0658
     41 H           5.0537    2.8413    0.0000 H       1  UNL1        0.0655
     42 H           1.8607    3.2268    0.0000 H       1  UNL1        0.1166
     43 H           1.4515    2.5053    0.0000 H       1  UNL1        0.1166
     44 H           8.9412   -2.4480    0.0000 H       1  UNL1        0.1166
     45 H           8.9412   -1.6185    0.0000 H       1  UNL1        0.1166
@<TRIPOS>BOND
     1     8     1    1
     2     1    39    1
     3     2    17    1
     4     2    25    1
     5     3    21    1
     6     3    25    1
     7     4    22    1
     8     4    26    1
     9     5    23    1
    10     5    26    1
    11     7     6    1
    12     6    13    1
    13     6    16    1
    14     7     8    1
    15     7     9    1
    16     7    10    1
    17     8    11    1
    18     8    27    1
    19     9    12    1
    20     9    28    1
    21     9    29    1
    22    10    14   ar
    23    10    18   ar
    24    11    12   ar
    25    11    17   ar
    26    12    19   ar
    27    13    15    1
    28    13    30    1
    29    13    31    1
    30    14    15    1
    31    14    20   ar
    32    15    32    1
    33    15    33    1
    34    16    34    1
    35    16    35    1
    36    16    36    1
    37    17    21   ar
    38    18    22   ar
    39    18    37    1
    40    19    24   ar
    41    19    38    1
    42    20    23   ar
    43    20    40    1
    44    21    24   ar
    45    22    23   ar
    46    24    41    1
    47    25    42    1
    48    25    43    1
    49    26    44    1
    50    26    45    1
