@<TRIPOS>MOLECULE
IMPHY007155
 32 32 0 0 0
SMALL
GASTEIGER

@<TRIPOS>ATOM
      1 O           2.6200   -2.5880    0.0000 O.3     1  UNL1       -0.3888
      2 O           3.1200    2.2780    0.0000 O.3     1  UNL1       -0.3888
      3 C           3.1200    0.2780    0.0000 C.3     1  UNL1       -0.0125
      4 C           3.1200   -1.7220    0.0000 C.3     1  UNL1        0.0634
      5 C           3.9860   -0.2220    0.0000 C.3     1  UNL1       -0.0450
      6 C           2.2540   -0.2220    0.0000 C.3     1  UNL1       -0.0450
      7 C           3.9860   -1.2220    0.0000 C.3     1  UNL1       -0.0239
      8 C           2.2540   -1.2220    0.0000 C.3     1  UNL1       -0.0239
      9 C           3.1200    1.2780    0.0000 C.3     1  UNL1        0.0633
     10 C           3.6200   -2.5880    0.0000 C.3     1  UNL1       -0.0361
     11 C           4.1200    1.2780    0.0000 C.3     1  UNL1       -0.0361
     12 C           2.1200    1.2780    0.0000 C.3     1  UNL1       -0.0361
     13 H           2.5831    0.5880    0.0000 H       1  UNL1        0.0328
     14 H           4.5966   -0.3296    0.0000 H       1  UNL1        0.0270
     15 H           4.1981    0.3606    0.0000 H       1  UNL1        0.0270
     16 H           2.0419    0.3606    0.0000 H       1  UNL1        0.0270
     17 H           1.6434   -0.3296    0.0000 H       1  UNL1        0.0270
     18 H           4.1981   -1.8046    0.0000 H       1  UNL1        0.0293
     19 H           4.5966   -1.1143    0.0000 H       1  UNL1        0.0293
     20 H           1.6434   -1.1143    0.0000 H       1  UNL1        0.0293
     21 H           2.0419   -1.8046    0.0000 H       1  UNL1        0.0293
     22 H           3.0831   -2.8980    0.0000 H       1  UNL1        0.0257
     23 H           3.9300   -3.1250    0.0000 H       1  UNL1        0.0257
     24 H           4.1569   -2.2780    0.0000 H       1  UNL1        0.0257
     25 H           4.1200    0.6580    0.0000 H       1  UNL1        0.0257
     26 H           4.7400    1.2780    0.0000 H       1  UNL1        0.0257
     27 H           4.1200    1.8980    0.0000 H       1  UNL1        0.0257
     28 H           2.1200    1.8980    0.0000 H       1  UNL1        0.0257
     29 H           1.5000    1.2780    0.0000 H       1  UNL1        0.0257
     30 H           2.1200    0.6580    0.0000 H       1  UNL1        0.0257
     31 H           2.0000   -2.5880    0.0000 H       1  UNL1        0.2101
     32 H           3.6569    2.5880    0.0000 H       1  UNL1        0.2101
@<TRIPOS>BOND
     1     1     4    1
     2     1    31    1
     3     2     9    1
     4     2    32    1
     5     3     5    1
     6     3     6    1
     7     3     9    1
     8     3    13    1
     9     4     7    1
    10     4     8    1
    11     4    10    1
    12     5     7    1
    13     5    14    1
    14     5    15    1
    15     6     8    1
    16     6    16    1
    17     6    17    1
    18     7    18    1
    19     7    19    1
    20     8    20    1
    21     8    21    1
    22     9    11    1
    23     9    12    1
    24    10    22    1
    25    10    23    1
    26    10    24    1
    27    11    25    1
    28    11    26    1
    29    11    27    1
    30    12    28    1
    31    12    29    1
    32    12    30    1
