@<TRIPOS>MOLECULE
IMPHY010511
 62 67 0 0 0
SMALL
GASTEIGER

@<TRIPOS>ATOM
      1 O           6.0290    2.0010    0.0000 O.3     1  UNL1       -0.4822
      2 O           6.0010   -1.9643    0.0000 O.3     1  UNL1       -0.4828
      3 O           6.0174    5.0702    0.0000 O.2     1  UNL1       -0.2917
      4 O           2.5369    2.0357    0.0000 O.3     1  UNL1       -0.5059
      5 O           4.2690    5.0357    0.0000 O.3     1  UNL1       -0.5058
      6 O           2.5369    1.0357    0.0000 O.3     1  UNL1       -0.5062
      7 O           8.5991   -0.4643    0.0000 O.2     1  UNL1       -0.2917
      8 O           9.5033   -1.9612    0.0000 O.3     1  UNL1       -0.5058
      9 O           7.7452   -5.0336    0.0000 O.3     1  UNL1       -0.5065
     10 O          10.3914    0.5015    0.0000 O.3     1  UNL1       -0.5068
     11 C           6.0010   -0.9643    0.0000 C.3     1  UNL1        0.1322
     12 C           6.9350    2.5148    0.0000 C.3     1  UNL1        0.1322
     13 C           5.1350    2.5357    0.0000 C.ar    1  UNL1        0.1467
     14 C           6.9350    3.5565    0.0000 C.3     1  UNL1        0.0520
     15 C           4.2690    2.0357    0.0000 C.ar    1  UNL1        0.0696
     16 C           5.1350   -0.4643    0.0000 C.ar    1  UNL1       -0.0061
     17 C           5.1350    3.5357    0.0000 C.ar    1  UNL1        0.1013
     18 C           6.8671   -0.4643    0.0000 C.3     1  UNL1        0.0520
     19 C           4.2690    1.0357    0.0000 C.ar    1  UNL1        0.0310
     20 C           6.0290    4.0703    0.0000 C.2     1  UNL1        0.1740
     21 C           5.1350    0.5357    0.0000 C.ar    1  UNL1       -0.0436
     22 C           7.7991    2.0115    0.0000 C.ar    1  UNL1       -0.0067
     23 C           7.7331   -0.9643    0.0000 C.2     1  UNL1        0.1740
     24 C           3.4030    2.5357    0.0000 C.ar    1  UNL1        0.1317
     25 C           7.7331   -1.9643    0.0000 C.ar    1  UNL1        0.1007
     26 C           4.2690    4.0357    0.0000 C.ar    1  UNL1        0.1344
     27 C           6.8671   -2.4643    0.0000 C.ar    1  UNL1        0.1389
     28 C           4.2690   -0.9643    0.0000 C.ar    1  UNL1       -0.0516
     29 C           3.4030    0.5357    0.0000 C.ar    1  UNL1        0.1248
     30 C           3.4030    3.5357    0.0000 C.ar    1  UNL1        0.0229
     31 C           3.4030   -0.4643    0.0000 C.ar    1  UNL1       -0.0192
     32 C           7.7953    1.0115    0.0000 C.ar    1  UNL1       -0.0516
     33 C           8.6671    2.5082    0.0000 C.ar    1  UNL1       -0.0516
     34 C           8.6431   -2.4712    0.0000 C.ar    1  UNL1        0.1343
     35 C           6.8510   -3.5058    0.0000 C.ar    1  UNL1        0.0225
     36 C           7.7490   -4.0336    0.0000 C.ar    1  UNL1        0.1238
     37 C           8.6511   -3.5128    0.0000 C.ar    1  UNL1        0.0222
     38 C           8.6594    0.5082    0.0000 C.ar    1  UNL1       -0.0198
     39 C           9.5312    2.0048    0.0000 C.ar    1  UNL1       -0.0198
     40 C           9.5273    1.0048    0.0000 C.ar    1  UNL1        0.1169
     41 H           5.4641   -1.2743    0.0000 H       1  UNL1        0.0789
     42 H           7.4726    2.8238    0.0000 H       1  UNL1        0.0789
     43 H           7.5459    3.4504    0.0000 H       1  UNL1        0.0385
     44 H           7.1441    4.1402    0.0000 H       1  UNL1        0.0385
     45 H           7.2656    0.0106    0.0000 H       1  UNL1        0.0385
     46 H           6.4685    0.0106    0.0000 H       1  UNL1        0.0385
     47 H           5.6720    0.8457    0.0000 H       1  UNL1        0.0629
     48 H           4.2690   -1.5843    0.0000 H       1  UNL1        0.0623
     49 H           2.8660    3.8457    0.0000 H       1  UNL1        0.0691
     50 H           2.8660   -0.7743    0.0000 H       1  UNL1        0.0654
     51 H           7.2571    0.7036    0.0000 H       1  UNL1        0.0623
     52 H           8.6694    3.1282    0.0000 H       1  UNL1        0.0623
     53 H           6.3105   -3.8096    0.0000 H       1  UNL1        0.0691
     54 H           9.1892   -3.8207    0.0000 H       1  UNL1        0.0691
     55 H           8.6570   -0.1118    0.0000 H       1  UNL1        0.0654
     56 H          10.0693    2.3128    0.0000 H       1  UNL1        0.0654
     57 H           2.0000    2.3457    0.0000 H       1  UNL1        0.2922
     58 H           3.7320    5.3457    0.0000 H       1  UNL1        0.2922
     59 H           2.0000    0.7257    0.0000 H       1  UNL1        0.2922
     60 H          10.0438   -2.2650    0.0000 H       1  UNL1        0.2922
     61 H           8.2809   -5.3457    0.0000 H       1  UNL1        0.2921
     62 H          10.9295    0.8094    0.0000 H       1  UNL1        0.2921
@<TRIPOS>BOND
     1     1    12    1
     2     1    13    1
     3     2    11    1
     4     2    27    1
     5     3    20    2
     6     4    24    1
     7     4    57    1
     8     5    26    1
     9     5    58    1
    10     6    29    1
    11     6    59    1
    12     7    23    2
    13     8    34    1
    14     8    60    1
    15     9    36    1
    16     9    61    1
    17    10    40    1
    18    10    62    1
    19    11    16    1
    20    11    18    1
    21    11    41    1
    22    12    14    1
    23    12    22    1
    24    12    42    1
    25    13    15   ar
    26    13    17   ar
    27    14    20    1
    28    14    43    1
    29    14    44    1
    30    15    19    1
    31    15    24   ar
    32    16    21   ar
    33    16    28   ar
    34    17    20    1
    35    17    26   ar
    36    18    23    1
    37    18    45    1
    38    18    46    1
    39    19    21   ar
    40    19    29   ar
    41    21    47    1
    42    22    32   ar
    43    22    33   ar
    44    23    25    1
    45    24    30   ar
    46    25    27   ar
    47    25    34   ar
    48    26    30   ar
    49    27    35   ar
    50    28    31   ar
    51    28    48    1
    52    29    31   ar
    53    30    49    1
    54    31    50    1
    55    32    38   ar
    56    32    51    1
    57    33    39   ar
    58    33    52    1
    59    34    37   ar
    60    35    36   ar
    61    35    53    1
    62    36    37   ar
    63    37    54    1
    64    38    40   ar
    65    38    55    1
    66    39    40   ar
    67    39    56    1
