@<TRIPOS>MOLECULE
IMPHY007595
 65 70 0 0 0
SMALL
GASTEIGER

@<TRIPOS>ATOM
      1 O           8.3988    0.8850    0.0000 O.3     1  UNL1       -0.4510
      2 O           5.5139    0.5626    0.0000 O.3     1  UNL1       -0.4512
      3 O           6.9536   -0.3697    0.0000 O.3     1  UNL1       -0.3832
      4 O           6.0483    2.9562    0.0000 O.3     1  UNL1       -0.3842
      5 O           4.2530    0.8727    0.0000 O.3     1  UNL1       -0.4528
      6 O           9.4712    0.3512    0.0000 O.3     1  UNL1       -0.5030
      7 O           9.8122   -0.3853    0.0000 O.2     1  UNL1       -0.2449
      8 O           4.0104    3.4818    0.0000 O.3     1  UNL1       -0.3913
      9 O           9.0587   -3.1070    0.0000 O.3     1  UNL1       -0.5028
     10 O          10.3428   -1.5065    0.0000 O.3     1  UNL1       -0.5009
     11 O           4.3816   -0.1439    0.0000 O.2     1  UNL1       -0.2449
     12 O           7.6889   -2.5180    0.0000 O.3     1  UNL1       -0.5028
     13 O           6.6492    0.9668    0.0000 O.3     1  UNL1       -0.5028
     14 O           8.1580    0.2329    0.0000 O.3     1  UNL1       -0.5009
     15 O           2.4155    0.6787    0.0000 O.2     1  UNL1       -0.2449
     16 O           5.7672   -2.4930    0.0000 O.3     1  UNL1       -0.5028
     17 O           4.5581   -3.4704    0.0000 O.3     1  UNL1       -0.5009
     18 O           2.5939   -2.8896    0.0000 O.3     1  UNL1       -0.5032
     19 C           7.4357    1.4411    0.0000 C.3     1  UNL1        0.1725
     20 C           6.3305    1.3176    0.0000 C.3     1  UNL1        0.1720
     21 C           7.5329    0.4454    0.0000 C.3     1  UNL1        0.1249
     22 C           5.6418    2.0426    0.0000 C.3     1  UNL1        0.1346
     23 C           7.9338   -0.4711    0.0000 C.ar    1  UNL1        0.0444
     24 C           4.5366    1.8316    0.0000 C.3     1  UNL1        0.1555
     25 C           8.5988   -1.2185    0.0000 C.ar    1  UNL1        0.0798
     26 C           7.7579   -1.9461    0.0000 C.ar    1  UNL1        0.0462
     27 C           8.8444   -0.1338    0.0000 C.2     1  UNL1        0.3408
     28 C           6.6492   -2.0332    0.0000 C.ar    1  UNL1        0.0464
     29 C           8.9276   -0.4882    0.0000 C.ar    1  UNL1        0.1687
     30 C           5.7832   -1.5332    0.0000 C.ar    1  UNL1        0.0818
     31 C           3.7971    2.5048    0.0000 C.3     1  UNL1        0.0838
     32 C           5.3043   -0.5295    0.0000 C.2     1  UNL1        0.3411
     33 C           8.7278   -2.1633    0.0000 C.ar    1  UNL1        0.1708
     34 C           5.7832   -0.5332    0.0000 C.ar    1  UNL1        0.0464
     35 C           9.3499   -1.3880    0.0000 C.ar    1  UNL1        0.2016
     36 C           7.5152   -1.5332    0.0000 C.ar    1  UNL1        0.1708
     37 C           4.8109   -0.7671    0.0000 C.ar    1  UNL1        0.0458
     38 C           6.6492   -0.0332    0.0000 C.ar    1  UNL1        0.1708
     39 C           3.8520   -0.4835    0.0000 C.ar    1  UNL1        0.0740
     40 C           7.5152   -0.5332    0.0000 C.ar    1  UNL1        0.2019
     41 C           3.3744    0.3951    0.0000 C.2     1  UNL1        0.3404
     42 C           5.0701   -1.7759    0.0000 C.ar    1  UNL1        0.1708
     43 C           3.0858   -1.1891    0.0000 C.ar    1  UNL1       -0.0017
     44 C           4.3204   -2.4991    0.0000 C.ar    1  UNL1        0.2012
     45 C           3.3216   -2.2037    0.0000 C.ar    1  UNL1        0.1628
     46 H           7.5626    2.0480    0.0000 H       1  UNL1        0.0803
     47 H           5.7108    1.3377    0.0000 H       1  UNL1        0.0800
     48 H           6.9338    0.6050    0.0000 H       1  UNL1        0.0683
     49 H           5.2566    2.5284    0.0000 H       1  UNL1        0.0670
     50 H           3.9394    1.6648    0.0000 H       1  UNL1        0.0785
     51 H           3.2235    2.7402    0.0000 H       1  UNL1        0.0595
     52 H           3.4657    1.9808    0.0000 H       1  UNL1        0.0595
     53 H           6.8952   -0.9868    0.0000 H       1  UNL1        0.2104
     54 H           5.6838    3.4578    0.0000 H       1  UNL1        0.2101
     55 H           9.1889    0.9033    0.0000 H       1  UNL1        0.2923
     56 H           3.5519    3.8992    0.0000 H       1  UNL1        0.2096
     57 H           9.6679   -3.2219    0.0000 H       1  UNL1        0.2923
     58 H           2.4933   -1.0064    0.0000 H       1  UNL1        0.0664
     59 H          10.5871   -2.0763    0.0000 H       1  UNL1        0.2924
     60 H           7.2139   -2.9165    0.0000 H       1  UNL1        0.2923
     61 H           6.8613    1.5494    0.0000 H       1  UNL1        0.2923
     62 H           7.9460    0.8155    0.0000 H       1  UNL1        0.2924
     63 H           5.5982   -3.0895    0.0000 H       1  UNL1        0.2923
     64 H           4.1102   -3.8992    0.0000 H       1  UNL1        0.2924
     65 H           2.0000   -2.7115    0.0000 H       1  UNL1        0.2923
@<TRIPOS>BOND
     1     1    19    1
     2     1    27    1
     3     2    20    1
     4     2    32    1
     5     3    21    1
     6     3    53    1
     7     4    22    1
     8     4    54    1
     9     5    24    1
    10     5    41    1
    11     6    29    1
    12     6    55    1
    13     7    27    2
    14     8    31    1
    15     8    56    1
    16     9    33    1
    17     9    57    1
    18    10    35    1
    19    10    59    1
    20    11    32    2
    21    12    36    1
    22    12    60    1
    23    13    38    1
    24    13    61    1
    25    14    40    1
    26    14    62    1
    27    15    41    2
    28    16    42    1
    29    16    63    1
    30    17    44    1
    31    17    64    1
    32    18    45    1
    33    18    65    1
    34    19    20    1
    35    19    21    1
    36    19    46    1
    37    20    22    1
    38    20    47    1
    39    21    23    1
    40    21    48    1
    41    22    24    1
    42    22    49    1
    43    23    25   ar
    44    23    29   ar
    45    24    31    1
    46    24    50    1
    47    25    26   ar
    48    25    27    1
    49    26    28    1
    50    26    33   ar
    51    28    30   ar
    52    28    36   ar
    53    29    35   ar
    54    30    32    1
    55    30    34   ar
    56    31    51    1
    57    31    52    1
    58    33    35   ar
    59    34    37    1
    60    34    38   ar
    61    36    40   ar
    62    37    39   ar
    63    37    42   ar
    64    38    40   ar
    65    39    41    1
    66    39    43   ar
    67    42    44   ar
    68    43    45   ar
    69    43    58    1
    70    44    45   ar
