@<TRIPOS>MOLECULE
IMPHY010754
 20 23 0 0 0
SMALL
GASTEIGER

@<TRIPOS>ATOM
      1 O           4.5596    0.8465    0.0000 O.3     1  UNL1       -0.3306
      2 O           5.7899    1.0786    0.0000 O.3     1  UNL1       -0.2959
      3 O           6.5318   -0.1397    0.0000 O.3     1  UNL1       -0.4218
      4 O           3.7326    2.7614    0.0000 O.3     1  UNL1       -0.2179
      5 O           7.5355   -1.6438    0.0000 O.2     1  UNL1       -0.2501
      6 C           4.6664   -0.3303    0.0000 C.3     1  UNL1        0.1597
      7 C           3.7655    0.1036    0.0000 C.3     1  UNL1        0.0338
      8 C           4.7603   -1.3676    0.0000 C.3     1  UNL1        0.0417
      9 C           2.8959   -0.4698    0.0000 C.3     1  UNL1        0.0026
     10 C           5.5674    0.1036    0.0000 C.3     1  UNL1        0.3171
     11 C           5.1664    1.8604    0.0000 C.3     1  UNL1        0.2187
     12 C           3.5430    1.0786    0.0000 C.3     1  UNL1        0.0405
     13 C           3.9042   -1.9610    0.0000 C.3     1  UNL1        0.0031
     14 C           4.1664    1.8604    0.0000 C.3     1  UNL1        0.2030
     15 C           2.9657   -1.5091    0.0000 C.3     1  UNL1        0.0002
     16 C           5.7378   -1.8384    0.0000 C.3     1  UNL1        0.1016
     17 C           2.0000   -0.0255    0.0000 C.3     1  UNL1        0.0001
     18 C           6.6296   -1.2203    0.0000 C.2     1  UNL1        0.3184
     19 C           5.3890    2.8353    0.0000 C.3     1  UNL1        0.0641
     20 C           5.8164   -2.8353    0.0000 C.3     1  UNL1        0.0117
@<TRIPOS>BOND
     1     1     6    1
     2     1    11    1
     3     2    10    1
     4     2    11    1
     5     3    10    1
     6     3    18    1
     7     4    14    1
     8     5    18    2
     9     6     7    1
    10     6     8    1
    11     6    10    1
    12     7     9    1
    13     7    12    1
    14     8    13    1
    15     8    16    1
    16     9    15    1
    17     9    17    1
    18    11    14    1
    19    11    19    1
    20    12    14    1
    21    13    15    1
    22    16    18    1
    23    16    20    1
