@<TRIPOS>MOLECULE
IMPHY009343
 41 41 0 0 0
SMALL
GASTEIGER

@<TRIPOS>ATOM
      1 O           7.1485   -0.3956    0.0000 O.3     1  UNL1       -0.3657
      2 O           4.8532    1.5304    0.0000 O.2     1  UNL1       -0.2961
      3 C           6.3395    0.1922    0.0000 C.3     1  UNL1        0.0691
      4 C           7.9575    0.1922    0.0000 C.3     1  UNL1        0.0850
      5 C           6.6485    1.1432    0.0000 C.3     1  UNL1       -0.0230
      6 C           7.6485    1.1432    0.0000 C.3     1  UNL1       -0.0180
      7 C           5.3884   -0.1169    0.0000 C.3     1  UNL1        0.0418
      8 C           4.6453    0.5523    0.0000 C.2     1  UNL1        0.1478
      9 C           8.9086    0.5012    0.0000 C.3     1  UNL1       -0.0322
     10 C           3.6942    0.2432    0.0000 C.3     1  UNL1        0.0415
     11 C           5.1805   -1.0950    0.0000 C.3     1  UNL1       -0.0533
     12 C           8.5453   -0.6169    0.0000 C.2     1  UNL1       -0.0600
     13 C           3.3852    1.1943    0.0000 C.3     1  UNL1       -0.0496
     14 C           4.0032   -0.7078    0.0000 C.3     1  UNL1       -0.0496
     15 C           2.7431   -0.0658    0.0000 C.2     1  UNL1       -0.0784
     16 C           8.1385   -1.5304    0.0000 C.2     1  UNL1       -0.1000
     17 C           2.0000    0.6034    0.0000 C.2     1  UNL1       -0.1017
     18 H           6.2425   -0.4202    0.0000 H       1  UNL1        0.0603
     19 H           6.7133    1.7598    0.0000 H       1  UNL1        0.0291
     20 H           6.0420    1.2721    0.0000 H       1  UNL1        0.0291
     21 H           8.2549    1.2721    0.0000 H       1  UNL1        0.0297
     22 H           7.5837    1.7598    0.0000 H       1  UNL1        0.0297
     23 H           4.7988   -0.3085    0.0000 H       1  UNL1        0.0400
     24 H           9.1001   -0.0885    0.0000 H       1  UNL1        0.0260
     25 H           9.4982    0.6928    0.0000 H       1  UNL1        0.0260
     26 H           8.7170    1.0908    0.0000 H       1  UNL1        0.0260
     27 H           4.5740   -0.9661    0.0000 H       1  UNL1        0.0237
     28 H           5.0516   -1.7015    0.0000 H       1  UNL1        0.0237
     29 H           5.7869   -1.2239    0.0000 H       1  UNL1        0.0237
     30 H           9.1619   -0.5521    0.0000 H       1  UNL1        0.0594
     31 H           3.9748    1.3859    0.0000 H       1  UNL1        0.0242
     32 H           3.1936    1.7840    0.0000 H       1  UNL1        0.0242
     33 H           2.7955    1.0027    0.0000 H       1  UNL1        0.0242
     34 H           3.4136   -0.8994    0.0000 H       1  UNL1        0.0242
     35 H           4.1948   -1.2975    0.0000 H       1  UNL1        0.0242
     36 H           4.5929   -0.5162    0.0000 H       1  UNL1        0.0242
     37 H           2.6142   -0.6722    0.0000 H       1  UNL1        0.0576
     38 H           7.5219   -1.5952    0.0000 H       1  UNL1        0.0533
     39 H           8.5030   -2.0320    0.0000 H       1  UNL1        0.0533
     40 H           2.1289    1.2098    0.0000 H       1  UNL1        0.0532
     41 H           1.4103    0.4118    0.0000 H       1  UNL1        0.0532
@<TRIPOS>BOND
     1     1     3    1
     2     1     4    1
     3     2     8    2
     4     3     5    1
     5     3     7    1
     6     3    18    1
     7     4     6    1
     8     4     9    1
     9     4    12    1
    10     5     6    1
    11     5    19    1
    12     5    20    1
    13     6    21    1
    14     6    22    1
    15     7     8    1
    16     7    11    1
    17     7    23    1
    18     8    10    1
    19     9    24    1
    20     9    25    1
    21     9    26    1
    22    10    13    1
    23    10    14    1
    24    10    15    1
    25    11    27    1
    26    11    28    1
    27    11    29    1
    28    12    16    2
    29    12    30    1
    30    13    31    1
    31    13    32    1
    32    13    33    1
    33    14    34    1
    34    14    35    1
    35    14    36    1
    36    15    17    2
    37    15    37    1
    38    16    38    1
    39    16    39    1
    40    17    40    1
    41    17    41    1
