@<TRIPOS>MOLECULE
IMPHY005566
 24 26 0 0 0
SMALL
GASTEIGER

@<TRIPOS>ATOM
      1 N           4.5274    0.8518    0.0000 N.ar    1  UNL1       -0.3527
      2 N           7.0547   -0.2724    0.0000 N.ar    1  UNL1       -0.2581
      3 C           5.0274   -0.6871    0.0000 C.ar    1  UNL1        0.0106
      4 C           5.3364    0.2640    0.0000 C.ar    1  UNL1        0.0688
      5 C           4.0274   -0.6871    0.0000 C.ar    1  UNL1        0.0075
      6 C           3.7183    0.2640    0.0000 C.ar    1  UNL1        0.0475
      7 C           6.3518    0.4963    0.0000 C.ar    1  UNL1        0.0620
      8 C           5.7123   -1.4718    0.0000 C.ar    1  UNL1       -0.0338
      9 C           3.3424   -1.4718    0.0000 C.ar    1  UNL1       -0.0520
     10 C           2.7029    0.4963    0.0000 C.ar    1  UNL1       -0.0378
     11 C           2.3219   -1.2631    0.0000 C.ar    1  UNL1       -0.0611
     12 C           2.0000   -0.2724    0.0000 C.ar    1  UNL1       -0.0598
     13 C           6.7328   -1.2631    0.0000 C.ar    1  UNL1        0.0286
     14 C           6.6498    1.4508    0.0000 C.3     1  UNL1       -0.0203
     15 H           4.5274    1.4718    0.0000 H       1  UNL1        0.1660
     16 H           5.5139   -2.0592    0.0000 H       1  UNL1        0.0639
     17 H           3.5408   -2.0592    0.0000 H       1  UNL1        0.0624
     18 H           2.5182    1.0881    0.0000 H       1  UNL1        0.0638
     19 H           1.9088   -1.7254    0.0000 H       1  UNL1        0.0618
     20 H           7.1459   -1.7254    0.0000 H       1  UNL1        0.0830
     21 H           1.3940   -0.1412    0.0000 H       1  UNL1        0.0618
     22 H           7.2416    1.2661    0.0000 H       1  UNL1        0.0293
     23 H           6.8345    2.0426    0.0000 H       1  UNL1        0.0293
     24 H           6.0580    1.6356    0.0000 H       1  UNL1        0.0293
@<TRIPOS>BOND
     1     1     4   ar
     2     1     6   ar
     3     1    15    1
     4     2     7   ar
     5     2    13   ar
     6     3     4   ar
     7     3     5   ar
     8     3     8   ar
     9     4     7   ar
    10     5     6   ar
    11     5     9   ar
    12     6    10   ar
    13     7    14    1
    14     8    13   ar
    15     8    16    1
    16     9    11   ar
    17     9    17    1
    18    10    12   ar
    19    10    18    1
    20    11    12   ar
    21    11    19    1
    22    12    21    1
    23    13    20    1
    24    14    22    1
    25    14    23    1
    26    14    24    1
