@<TRIPOS>MOLECULE
IMPHY007053
 29 30 0 0 0
SMALL
GASTEIGER

@<TRIPOS>ATOM
      1 O           2.0000    0.2500    0.0000 O.2     1  UNL1       -0.2916
      2 O           2.8660    1.7500    0.0000 O.2     1  UNL1       -0.2916
      3 C           3.7320    0.2500    0.0000 C.3     1  UNL1        0.0735
      4 C           2.8660   -0.2500    0.0000 C.2     1  UNL1        0.1706
      5 C           3.7320    1.2500    0.0000 C.2     1  UNL1        0.1706
      6 C           2.8660   -1.2500    0.0000 C.ar    1  UNL1        0.0178
      7 C           4.5981    1.7500    0.0000 C.ar    1  UNL1        0.0178
      8 C           2.0000   -1.7500    0.0000 C.ar    1  UNL1       -0.0513
      9 C           5.4641    1.2500    0.0000 C.ar    1  UNL1       -0.0513
     10 C           3.7320   -1.7500    0.0000 C.ar    1  UNL1       -0.0513
     11 C           4.5981    2.7500    0.0000 C.ar    1  UNL1       -0.0513
     12 C           6.3301    1.7500    0.0000 C.ar    1  UNL1       -0.0611
     13 C           2.0000   -2.7500    0.0000 C.ar    1  UNL1       -0.0611
     14 C           3.7320   -2.7500    0.0000 C.ar    1  UNL1       -0.0611
     15 C           5.4641    3.2500    0.0000 C.ar    1  UNL1       -0.0611
     16 C           2.8660   -3.2500    0.0000 C.ar    1  UNL1       -0.0617
     17 C           6.3301    2.7500    0.0000 C.ar    1  UNL1       -0.0617
     18 H           3.9441   -0.3326    0.0000 H       1  UNL1        0.0426
     19 H           4.3426    0.3577    0.0000 H       1  UNL1        0.0426
     20 H           1.4631   -1.4400    0.0000 H       1  UNL1        0.0624
     21 H           5.4641    0.6300    0.0000 H       1  UNL1        0.0624
     22 H           4.2690   -1.4400    0.0000 H       1  UNL1        0.0624
     23 H           4.0611    3.0600    0.0000 H       1  UNL1        0.0624
     24 H           1.4631   -3.0600    0.0000 H       1  UNL1        0.0618
     25 H           6.8671    1.4400    0.0000 H       1  UNL1        0.0618
     26 H           4.2690   -3.0600    0.0000 H       1  UNL1        0.0618
     27 H           5.4641    3.8700    0.0000 H       1  UNL1        0.0618
     28 H           6.8671    3.0600    0.0000 H       1  UNL1        0.0618
     29 H           2.8660   -3.8700    0.0000 H       1  UNL1        0.0618
@<TRIPOS>BOND
     1     1     4    2
     2     2     5    2
     3     3     4    1
     4     3     5    1
     5     3    18    1
     6     3    19    1
     7     4     6    1
     8     5     7    1
     9     6     8   ar
    10     6    10   ar
    11     7     9   ar
    12     7    11   ar
    13     8    13   ar
    14     8    20    1
    15     9    12   ar
    16     9    21    1
    17    10    14   ar
    18    10    22    1
    19    11    15   ar
    20    11    23    1
    21    12    17   ar
    22    12    25    1
    23    13    16   ar
    24    13    24    1
    25    14    16   ar
    26    14    26    1
    27    15    17   ar
    28    15    27    1
    29    16    29    1
    30    17    28    1
