@<TRIPOS>MOLECULE
IMPHY006939
 114 119 0 0 0
SMALL
GASTEIGER

@<TRIPOS>ATOM
      1 O           9.6342   -1.0241    0.0000 O.3     1  UNL1       -0.4501
      2 O           7.3638    0.3343    0.0000 O.3     1  UNL1       -0.4497
      3 O          10.3182    0.8553    0.0000 O.3     1  UNL1       -0.4505
      4 O           6.6798   -1.5450    0.0000 O.3     1  UNL1       -0.4457
      5 O           9.0327    2.3874    0.0000 O.3     1  UNL1       -0.4573
      6 O           9.2922   -1.9638    0.0000 O.2     1  UNL1       -0.2845
      7 O          10.9610    0.0892    0.0000 O.2     1  UNL1       -0.2449
      8 O           6.0370   -0.7790    0.0000 O.2     1  UNL1       -0.2449
      9 O           7.0993   -2.5771    0.0000 O.2     1  UNL1       -0.2834
     10 O          10.0175    2.5610    0.0000 O.2     1  UNL1       -0.2449
     11 O           6.3378   -3.4847    0.0000 O.2     1  UNL1       -0.2449
     12 O           7.4051    2.9798    0.0000 O.2     1  UNL1       -0.2450
     13 O          13.8742   -2.0352    0.0000 O.3     1  UNL1       -0.5032
     14 O          11.2205   -4.2619    0.0000 O.3     1  UNL1       -0.5032
     15 O           3.1238    1.3455    0.0000 O.3     1  UNL1       -0.5032
     16 O           5.7775    3.5722    0.0000 O.3     1  UNL1       -0.5032
     17 O           9.6974   -6.0771    0.0000 O.3     1  UNL1       -0.5032
     18 O           6.2333   -6.0771    0.0000 O.3     1  UNL1       -0.5032
     19 O          13.1902   -3.9146    0.0000 O.3     1  UNL1       -0.5009
     20 O          13.3139    4.0217    0.0000 O.3     1  UNL1       -0.5032
     21 O          13.9155    0.6102    0.0000 O.3     1  UNL1       -0.5032
     22 O           3.8079    3.2249    0.0000 O.3     1  UNL1       -0.5009
     23 O           7.9654   -7.0771    0.0000 O.3     1  UNL1       -0.5009
     24 O           3.0826   -1.3000    0.0000 O.3     1  UNL1       -0.5032
     25 O           3.6841   -4.7114    0.0000 O.3     1  UNL1       -0.5032
     26 O          14.5995    2.4896    0.0000 O.3     1  UNL1       -0.5009
     27 O           2.3985   -3.1793    0.0000 O.3     1  UNL1       -0.5009
     28 O          11.0435    5.3801    0.0000 O.3     1  UNL1       -0.5032
     29 O           7.7884    6.5649    0.0000 O.3     1  UNL1       -0.5032
     30 O           9.7580    6.9122    0.0000 O.3     1  UNL1       -0.5009
     31 C           8.9914   -0.2581    0.0000 C.3     1  UNL1        0.1838
     32 C           8.0066   -0.4317    0.0000 C.3     1  UNL1        0.1876
     33 C           9.3334    0.6816    0.0000 C.3     1  UNL1        0.1774
     34 C           7.6646   -1.3714    0.0000 C.3     1  UNL1        0.2087
     35 C           8.6906    1.4477    0.0000 C.3     1  UNL1        0.1333
     36 C           8.3074   -2.1374    0.0000 C.2     1  UNL1        0.2469
     37 C          10.6190   -0.8505    0.0000 C.2     1  UNL1        0.3399
     38 C           6.3790    0.1607    0.0000 C.2     1  UNL1        0.3399
     39 C           7.9654   -3.0771    0.0000 C.2     1  UNL1        0.2322
     40 C          10.6603    1.7950    0.0000 C.2     1  UNL1        0.3399
     41 C           6.3378   -2.4847    0.0000 C.2     1  UNL1        0.3402
     42 C          11.2618   -1.6165    0.0000 C.ar    1  UNL1        0.0661
     43 C           5.7362    0.9267    0.0000 C.ar    1  UNL1        0.0661
     44 C           7.9654   -4.0771    0.0000 C.ar    1  UNL1        0.0325
     45 C          11.6451    1.9686    0.0000 C.ar    1  UNL1        0.0661
     46 C           8.3899    3.1534    0.0000 C.2     1  UNL1        0.3395
     47 C           5.3530   -2.6584    0.0000 C.ar    1  UNL1        0.0661
     48 C          10.9198   -2.5562    0.0000 C.ar    1  UNL1       -0.0023
     49 C          12.2466   -1.4428    0.0000 C.ar    1  UNL1       -0.0023
     50 C           6.0782    1.8664    0.0000 C.ar    1  UNL1       -0.0023
     51 C           4.7514    0.7531    0.0000 C.ar    1  UNL1       -0.0023
     52 C           7.0993   -4.5771    0.0000 C.ar    1  UNL1       -0.0054
     53 C           8.8314   -4.5771    0.0000 C.ar    1  UNL1       -0.0054
     54 C           8.7319    4.0931    0.0000 C.ar    1  UNL1        0.0661
     55 C          12.2879    1.2026    0.0000 C.ar    1  UNL1       -0.0023
     56 C          11.9871    2.9083    0.0000 C.ar    1  UNL1       -0.0023
     57 C           5.0109   -3.5981    0.0000 C.ar    1  UNL1       -0.0023
     58 C           4.7102   -1.8923    0.0000 C.ar    1  UNL1       -0.0023
     59 C          12.8894   -2.2089    0.0000 C.ar    1  UNL1        0.1628
     60 C          11.5626   -3.3222    0.0000 C.ar    1  UNL1        0.1628
     61 C           4.1086    1.5191    0.0000 C.ar    1  UNL1        0.1628
     62 C           5.4355    2.6325    0.0000 C.ar    1  UNL1        0.1628
     63 C           8.8314   -5.5771    0.0000 C.ar    1  UNL1        0.1626
     64 C           7.0993   -5.5771    0.0000 C.ar    1  UNL1        0.1626
     65 C          12.5474   -3.1486    0.0000 C.ar    1  UNL1        0.2006
     66 C          12.9719    3.0820    0.0000 C.ar    1  UNL1        0.1628
     67 C          13.2727    1.3762    0.0000 C.ar    1  UNL1        0.1628
     68 C           4.4507    2.4588    0.0000 C.ar    1  UNL1        0.2006
     69 C           7.9654   -6.0771    0.0000 C.ar    1  UNL1        0.2006
     70 C           8.0891    4.8592    0.0000 C.ar    1  UNL1       -0.0023
     71 C           9.7167    4.2668    0.0000 C.ar    1  UNL1       -0.0023
     72 C           3.7254   -2.0660    0.0000 C.ar    1  UNL1        0.1628
     73 C           4.0261   -3.7717    0.0000 C.ar    1  UNL1        0.1628
     74 C          13.6147    2.3159    0.0000 C.ar    1  UNL1        0.2006
     75 C           3.3833   -3.0057    0.0000 C.ar    1  UNL1        0.2006
     76 C          10.0587    5.2064    0.0000 C.ar    1  UNL1        0.1628
     77 C           8.4311    5.7988    0.0000 C.ar    1  UNL1        0.1628
     78 C           9.4159    5.9725    0.0000 C.ar    1  UNL1        0.2006
     79 H           8.7794   -0.8407    0.0000 H       1  UNL1        0.0812
     80 H           7.3960   -0.5394    0.0000 H       1  UNL1        0.0816
     81 H           9.7320    0.2067    0.0000 H       1  UNL1        0.0808
     82 H           7.4525   -1.9540    0.0000 H       1  UNL1        0.0859
     83 H           8.1537    1.7577    0.0000 H       1  UNL1        0.0736
     84 H           8.2921    0.9727    0.0000 H       1  UNL1        0.0736
     85 H          10.3092   -2.6638    0.0000 H       1  UNL1        0.0663
     86 H          12.4587   -0.8602    0.0000 H       1  UNL1        0.0663
     87 H           6.6888    1.9741    0.0000 H       1  UNL1        0.0663
     88 H           4.5394    0.1705    0.0000 H       1  UNL1        0.0663
     89 H           6.5624   -4.2671    0.0000 H       1  UNL1        0.0662
     90 H           9.3683   -4.2671    0.0000 H       1  UNL1        0.0662
     91 H          12.0758    0.6200    0.0000 H       1  UNL1        0.0663
     92 H          11.5886    3.3833    0.0000 H       1  UNL1        0.0663
     93 H           5.4095   -4.0730    0.0000 H       1  UNL1        0.0663
     94 H           4.9222   -1.3097    0.0000 H       1  UNL1        0.0663
     95 H           7.4785    4.7515    0.0000 H       1  UNL1        0.0663
     96 H          10.1152    3.7918    0.0000 H       1  UNL1        0.0663
     97 H          14.0863   -1.4526    0.0000 H       1  UNL1        0.2923
     98 H          11.6191   -4.7369    0.0000 H       1  UNL1        0.2923
     99 H           2.7253    1.8204    0.0000 H       1  UNL1        0.2923
    100 H           5.3790    4.0471    0.0000 H       1  UNL1        0.2923
    101 H          10.2343   -5.7671    0.0000 H       1  UNL1        0.2923
    102 H           5.6964   -5.7671    0.0000 H       1  UNL1        0.2923
    103 H          13.8007   -3.8070    0.0000 H       1  UNL1        0.2924
    104 H          12.9154    4.4966    0.0000 H       1  UNL1        0.2923
    105 H          14.5260    0.7178    0.0000 H       1  UNL1        0.2923
    106 H           4.0199    3.8075    0.0000 H       1  UNL1        0.2924
    107 H           7.4284   -7.3871    0.0000 H       1  UNL1        0.2924
    108 H           3.2946   -0.7173    0.0000 H       1  UNL1        0.2923
    109 H           3.0735   -4.8191    0.0000 H       1  UNL1        0.2923
    110 H          14.8115    3.0722    0.0000 H       1  UNL1        0.2924
    111 H           2.0000   -2.7044    0.0000 H       1  UNL1        0.2924
    112 H          11.2556    5.9627    0.0000 H       1  UNL1        0.2923
    113 H           8.0004    7.1475    0.0000 H       1  UNL1        0.2923
    114 H           9.3594    7.3871    0.0000 H       1  UNL1        0.2924
@<TRIPOS>BOND
     1    31     1    1
     2     1    37    1
     3    32     2    1
     4     2    38    1
     5    33     3    1
     6     3    40    1
     7    34     4    1
     8     4    41    1
     9     5    35    1
    10     5    46    1
    11     6    36    2
    12     7    37    2
    13     8    38    2
    14     9    39    2
    15    10    40    2
    16    11    41    2
    17    12    46    2
    18    13    59    1
    19    13    97    1
    20    14    60    1
    21    14    98    1
    22    15    61    1
    23    15    99    1
    24    16    62    1
    25    16   100    1
    26    17    63    1
    27    17   101    1
    28    18    64    1
    29    18   102    1
    30    19    65    1
    31    19   103    1
    32    20    66    1
    33    20   104    1
    34    21    67    1
    35    21   105    1
    36    22    68    1
    37    22   106    1
    38    23    69    1
    39    23   107    1
    40    24    72    1
    41    24   108    1
    42    25    73    1
    43    25   109    1
    44    26    74    1
    45    26   110    1
    46    27    75    1
    47    27   111    1
    48    28    76    1
    49    28   112    1
    50    29    77    1
    51    29   113    1
    52    30    78    1
    53    30   114    1
    54    31    32    1
    55    31    33    1
    56    31    79    1
    57    32    34    1
    58    32    80    1
    59    33    35    1
    60    33    81    1
    61    34    36    1
    62    34    82    1
    63    35    83    1
    64    35    84    1
    65    36    39    1
    66    37    42    1
    67    38    43    1
    68    39    44    1
    69    40    45    1
    70    41    47    1
    71    42    48   ar
    72    42    49   ar
    73    43    50   ar
    74    43    51   ar
    75    44    52   ar
    76    44    53   ar
    77    45    55   ar
    78    45    56   ar
    79    46    54    1
    80    47    57   ar
    81    47    58   ar
    82    48    60   ar
    83    48    85    1
    84    49    59   ar
    85    49    86    1
    86    50    62   ar
    87    50    87    1
    88    51    61   ar
    89    51    88    1
    90    52    64   ar
    91    52    89    1
    92    53    63   ar
    93    53    90    1
    94    54    70   ar
    95    54    71   ar
    96    55    67   ar
    97    55    91    1
    98    56    66   ar
    99    56    92    1
   100    57    73   ar
   101    57    93    1
   102    58    72   ar
   103    58    94    1
   104    59    65   ar
   105    60    65   ar
   106    61    68   ar
   107    62    68   ar
   108    63    69   ar
   109    64    69   ar
   110    66    74   ar
   111    67    74   ar
   112    70    77   ar
   113    70    95    1
   114    71    76   ar
   115    71    96    1
   116    72    75   ar
   117    73    75   ar
   118    76    78   ar
   119    77    78   ar
