@<TRIPOS>MOLECULE
IMPHY011177
 69 70 0 0 0
SMALL
GASTEIGER

@<TRIPOS>ATOM
      1 O          11.5542   -0.7969    0.0000 O.2     1  UNL1       -0.4212
      2 O           9.7942    2.2378    0.0000 O.3     1  UNL1       -0.5056
      3 O           8.0622   -0.7622    0.0000 O.3     1  UNL1       -0.5055
      4 O          12.4028    2.7823    0.0000 O.3     1  UNL1       -0.3872
      5 O          10.6603   -2.2622    0.0000 O.2     1  UNL1       -0.2915
      6 O          13.3244   -0.7864    0.0000 O.2     1  UNL1       -0.2452
      7 C          10.6603    0.7378    0.0000 C.ar    1  UNL1        0.0658
      8 C           9.7942   -0.7622    0.0000 C.ar    1  UNL1        0.1024
      9 C          10.6603   -0.2622    0.0000 C.ar    1  UNL1        0.1569
     10 C          11.5542    1.2724    0.0000 C.ar    1  UNL1        0.0018
     11 C           8.9282   -2.2622    0.0000 C.3     1  UNL1        0.0193
     12 C           8.9282    0.7378    0.0000 C.ar    1  UNL1        0.0406
     13 C           9.7942    1.2378    0.0000 C.ar    1  UNL1        0.1348
     14 C           8.9282   -0.2622    0.0000 C.ar    1  UNL1        0.1378
     15 C          11.5426    2.2724    0.0000 C.3     1  UNL1        0.0809
     16 C           9.7942   -1.7622    0.0000 C.2     1  UNL1        0.1730
     17 C           8.0622    1.2378    0.0000 C.3     1  UNL1       -0.0023
     18 C           8.9282   -3.2622    0.0000 C.3     1  UNL1       -0.0463
     19 C          10.6709    2.7623    0.0000 C.3     1  UNL1       -0.0255
     20 C          12.4603    0.7586    0.0000 C.ar    1  UNL1        0.0293
     21 C           8.0622   -1.7622    0.0000 C.3     1  UNL1       -0.0554
     22 C           7.1962    0.7378    0.0000 C.2     1  UNL1       -0.0805
     23 C          12.4603   -0.2831    0.0000 C.ar    1  UNL1        0.3376
     24 C           6.3301    1.2378    0.0000 C.2     1  UNL1       -0.0759
     25 C           8.0622   -3.7622    0.0000 C.3     1  UNL1       -0.0646
     26 C           5.4641    0.7378    0.0000 C.3     1  UNL1       -0.0286
     27 C          10.6593    3.7622    0.0000 C.3     1  UNL1       -0.0626
     28 C           4.5981    1.2378    0.0000 C.3     1  UNL1       -0.0308
     29 C           6.3301    2.2378    0.0000 C.3     1  UNL1       -0.0438
     30 C           3.7320    0.7378    0.0000 C.2     1  UNL1       -0.0850
     31 C           2.8660    1.2378    0.0000 C.2     1  UNL1       -0.0796
     32 C           2.0000    0.7378    0.0000 C.3     1  UNL1       -0.0440
     33 C           2.8660    2.2378    0.0000 C.3     1  UNL1       -0.0440
     34 H           8.9282   -1.4122    0.0000 H       1  UNL1        0.0378
     35 H          11.5328    3.1223    0.0000 H       1  UNL1        0.0644
     36 H           8.4607    1.7127    0.0000 H       1  UNL1        0.0358
     37 H           7.6636    1.7127    0.0000 H       1  UNL1        0.0358
     38 H           9.1403   -3.8448    0.0000 H       1  UNL1        0.0269
     39 H           9.5388   -3.1546    0.0000 H       1  UNL1        0.0269
     40 H          10.0591    2.8629    0.0000 H       1  UNL1        0.0291
     41 H          10.4656    2.1773    0.0000 H       1  UNL1        0.0291
     42 H          12.9960    1.0706    0.0000 H       1  UNL1        0.0693
     43 H           8.3722   -1.2253    0.0000 H       1  UNL1        0.0237
     44 H           7.5252   -1.4522    0.0000 H       1  UNL1        0.0237
     45 H           7.7522   -2.2992    0.0000 H       1  UNL1        0.0237
     46 H           7.1962    0.1178    0.0000 H       1  UNL1        0.0575
     47 H           7.7522   -3.2253    0.0000 H       1  UNL1        0.0230
     48 H           7.5252   -4.0722    0.0000 H       1  UNL1        0.0230
     49 H           8.3722   -4.2992    0.0000 H       1  UNL1        0.0230
     50 H           5.0656    0.2628    0.0000 H       1  UNL1        0.0313
     51 H           5.8626    0.2628    0.0000 H       1  UNL1        0.0313
     52 H          11.2793    3.7694    0.0000 H       1  UNL1        0.0231
     53 H          10.6522    4.3822    0.0000 H       1  UNL1        0.0231
     54 H          10.0394    3.7551    0.0000 H       1  UNL1        0.0231
     55 H           9.2573    2.5478    0.0000 H       1  UNL1        0.2922
     56 H           7.5252   -0.4522    0.0000 H       1  UNL1        0.2922
     57 H          12.3956    3.4023    0.0000 H       1  UNL1        0.2102
     58 H           4.9966    1.7127    0.0000 H       1  UNL1        0.0310
     59 H           4.1996    1.7127    0.0000 H       1  UNL1        0.0310
     60 H           6.9501    2.2378    0.0000 H       1  UNL1        0.0274
     61 H           6.3301    2.8578    0.0000 H       1  UNL1        0.0274
     62 H           5.7101    2.2378    0.0000 H       1  UNL1        0.0274
     63 H           3.7320    0.1178    0.0000 H       1  UNL1        0.0572
     64 H           1.6900    1.2747    0.0000 H       1  UNL1        0.0274
     65 H           1.4631    0.4278    0.0000 H       1  UNL1        0.0274
     66 H           2.3100    0.2008    0.0000 H       1  UNL1        0.0274
     67 H           3.4860    2.2378    0.0000 H       1  UNL1        0.0274
     68 H           2.8660    2.8578    0.0000 H       1  UNL1        0.0274
     69 H           2.2460    2.2378    0.0000 H       1  UNL1        0.0274
@<TRIPOS>BOND
     1     1     9   ar
     2     1    23   ar
     3     2    13    1
     4     2    55    1
     5     3    14    1
     6     3    56    1
     7     4    15    1
     8     4    57    1
     9     5    16    2
    10     6    23    2
    11     7     9   ar
    12     7    10   ar
    13     7    13   ar
    14     8     9   ar
    15     8    14   ar
    16     8    16    1
    17    10    15    1
    18    10    20   ar
    19    11    16    1
    20    11    18    1
    21    11    21    1
    22    11    34    1
    23    12    13   ar
    24    12    14   ar
    25    12    17    1
    26    15    19    1
    27    15    35    1
    28    17    22    1
    29    17    36    1
    30    17    37    1
    31    18    25    1
    32    18    38    1
    33    18    39    1
    34    19    27    1
    35    19    40    1
    36    19    41    1
    37    20    23   ar
    38    20    42    1
    39    21    43    1
    40    21    44    1
    41    21    45    1
    42    22    24    2
    43    22    46    1
    44    24    26    1
    45    24    29    1
    46    25    47    1
    47    25    48    1
    48    25    49    1
    49    26    28    1
    50    26    50    1
    51    26    51    1
    52    27    52    1
    53    27    53    1
    54    27    54    1
    55    28    30    1
    56    28    58    1
    57    28    59    1
    58    29    60    1
    59    29    61    1
    60    29    62    1
    61    30    31    2
    62    30    63    1
    63    31    32    1
    64    31    33    1
    65    32    64    1
    66    32    65    1
    67    32    66    1
    68    33    67    1
    69    33    68    1
    70    33    69    1
