@<TRIPOS>MOLECULE
IMPHY004844
 30 32 0 0 0
SMALL
GASTEIGER

@<TRIPOS>ATOM
      1 O           3.7817   -2.0346    0.0000 O.3     1  UNL1       -0.5058
      2 O           5.5301   -2.0000    0.0000 O.2     1  UNL1       -0.2865
      3 O           5.5301    2.0000    0.0000 O.2     1  UNL1       -0.2865
      4 O           7.2785    2.0346    0.0000 O.3     1  UNL1       -0.5028
      5 O           9.0602    1.0241    0.0000 O.3     1  UNL1       -0.5033
      6 C           4.6641   -0.5000    0.0000 C.ar    1  UNL1        0.0747
      7 C           4.6641    0.5000    0.0000 C.ar    1  UNL1        0.0367
      8 C           6.3961    0.5000    0.0000 C.ar    1  UNL1        0.0781
      9 C           6.3961   -0.5000    0.0000 C.ar    1  UNL1        0.0370
     10 C           5.5301   -1.0000    0.0000 C.2     1  UNL1        0.1981
     11 C           5.5301    1.0000    0.0000 C.2     1  UNL1        0.1982
     12 C           3.7702   -1.0347    0.0000 C.ar    1  UNL1        0.1312
     13 C           2.8641   -0.5208    0.0000 C.ar    1  UNL1       -0.0083
     14 C           3.7702    1.0347    0.0000 C.ar    1  UNL1       -0.0498
     15 C           7.2901    1.0347    0.0000 C.ar    1  UNL1        0.1699
     16 C           7.2901   -1.0347    0.0000 C.ar    1  UNL1       -0.0465
     17 C           2.8641    0.5208    0.0000 C.ar    1  UNL1       -0.0547
     18 C           8.1962    0.5208    0.0000 C.ar    1  UNL1        0.1590
     19 C           8.1962   -0.5208    0.0000 C.ar    1  UNL1       -0.0158
     20 C           2.0000   -1.0241    0.0000 C.3     1  UNL1       -0.0362
     21 H           3.7773    1.6546    0.0000 H       1  UNL1        0.0625
     22 H           7.2829   -1.6546    0.0000 H       1  UNL1        0.0626
     23 H           2.3284    0.8329    0.0000 H       1  UNL1        0.0622
     24 H           8.7319   -0.8329    0.0000 H       1  UNL1        0.0655
     25 H           1.6879   -0.4884    0.0000 H       1  UNL1        0.0279
     26 H           1.4643   -1.3362    0.0000 H       1  UNL1        0.0279
     27 H           2.3121   -1.5599    0.0000 H       1  UNL1        0.0279
     28 H           3.2484   -2.3508    0.0000 H       1  UNL1        0.2922
     29 H           7.8118    2.3508    0.0000 H       1  UNL1        0.2923
     30 H           9.5984    0.7162    0.0000 H       1  UNL1        0.2923
@<TRIPOS>BOND
     1     1    12    1
     2     1    28    1
     3     2    10    2
     4     3    11    2
     5     4    15    1
     6     4    29    1
     7     5    18    1
     8     5    30    1
     9     6     7   ar
    10     6    10    1
    11     6    12   ar
    12     7    11    1
    13     7    14   ar
    14     8     9   ar
    15     8    11    1
    16     8    15   ar
    17     9    10    1
    18     9    16   ar
    19    12    13   ar
    20    13    17   ar
    21    13    20    1
    22    14    17   ar
    23    14    21    1
    24    15    18   ar
    25    16    19   ar
    26    16    22    1
    27    17    23    1
    28    18    19   ar
    29    19    24    1
    30    20    25    1
    31    20    26    1
    32    20    27    1
