@<TRIPOS>MOLECULE
IMPHY015272
 23 23 0 0 0
SMALL
GASTEIGER

@<TRIPOS>ATOM
      1 O           2.0000    1.2500    0.0000 O.3     1  UNL1       -0.3829
      2 C           2.8660    0.7500    0.0000 C.3     1  UNL1        0.1008
      3 C           2.8660   -0.2500    0.0000 C.ar    1  UNL1       -0.0151
      4 C           3.7320    1.2500    0.0000 C.2     1  UNL1       -0.0472
      5 C           2.0000   -0.7500    0.0000 C.ar    1  UNL1       -0.0558
      6 C           3.7320   -0.7500    0.0000 C.ar    1  UNL1       -0.0558
      7 C           3.7320    2.2500    0.0000 C.3     1  UNL1       -0.0413
      8 C           2.0000   -1.7500    0.0000 C.ar    1  UNL1       -0.0614
      9 C           3.7320   -1.7500    0.0000 C.ar    1  UNL1       -0.0614
     10 C           2.8660   -2.2500    0.0000 C.ar    1  UNL1       -0.0617
     11 C           4.5981    0.7500    0.0000 C.2     1  UNL1       -0.0970
     12 H           2.8660    1.3700    0.0000 H       1  UNL1        0.0691
     13 H           1.4631   -0.4400    0.0000 H       1  UNL1        0.0621
     14 H           4.2690   -0.4400    0.0000 H       1  UNL1        0.0621
     15 H           4.3520    2.2500    0.0000 H       1  UNL1        0.0275
     16 H           3.7320    2.8700    0.0000 H       1  UNL1        0.0275
     17 H           3.1120    2.2500    0.0000 H       1  UNL1        0.0275
     18 H           1.4631   -2.0600    0.0000 H       1  UNL1        0.0618
     19 H           4.2690   -2.0600    0.0000 H       1  UNL1        0.0618
     20 H           2.8660   -2.8700    0.0000 H       1  UNL1        0.0618
     21 H           2.0000    1.8700    0.0000 H       1  UNL1        0.2107
     22 H           4.5981    0.1300    0.0000 H       1  UNL1        0.0535
     23 H           5.1350    1.0600    0.0000 H       1  UNL1        0.0535
@<TRIPOS>BOND
     1     1     2    1
     2     1    21    1
     3     2     3    1
     4     2     4    1
     5     2    12    1
     6     3     5   ar
     7     3     6   ar
     8     4     7    1
     9     4    11    2
    10     5     8   ar
    11     5    13    1
    12     6     9   ar
    13     6    14    1
    14     7    15    1
    15     7    16    1
    16     7    17    1
    17     8    10   ar
    18     8    18    1
    19     9    10   ar
    20     9    19    1
    21    10    20    1
    22    11    22    1
    23    11    23    1
