@<TRIPOS>MOLECULE
IMPHY004917
 40 41 0 0 0
SMALL
GASTEIGER

@<TRIPOS>ATOM
      1 O           9.3191   -1.8137    0.0000 O.3     1  UNL1       -0.3865
      2 O           9.3191    1.6968    0.0000 O.2     1  UNL1       -0.2917
      3 O           3.7320    0.9416    0.0000 O.3     1  UNL1       -0.4645
      4 O           2.8660   -0.5584    0.0000 O.2     1  UNL1       -0.2512
      5 C           9.5920   -0.0584    0.0000 C.3     1  UNL1        0.0494
      6 C           9.0084   -0.8632    0.0000 C.3     1  UNL1        0.0904
      7 C           8.0622   -0.5584    0.0000 C.ar    1  UNL1       -0.0075
      8 C           8.0622    0.4416    0.0000 C.ar    1  UNL1        0.0266
      9 C           9.0084    0.7463    0.0000 C.2     1  UNL1        0.1693
     10 C           7.1962    0.9416    0.0000 C.ar    1  UNL1       -0.0361
     11 C           6.3301    0.4416    0.0000 C.ar    1  UNL1       -0.0377
     12 C           7.1962   -1.0584    0.0000 C.ar    1  UNL1       -0.0522
     13 C           6.3301   -0.5584    0.0000 C.ar    1  UNL1       -0.0465
     14 C          10.5920   -0.0584    0.0000 C.3     1  UNL1       -0.0526
     15 C           5.4641    0.9416    0.0000 C.3     1  UNL1        0.0073
     16 C           7.1962    1.9416    0.0000 C.3     1  UNL1       -0.0388
     17 C           5.4641   -1.0584    0.0000 C.3     1  UNL1       -0.0394
     18 C           4.5981    0.4416    0.0000 C.3     1  UNL1        0.0964
     19 C           2.8660    0.4416    0.0000 C.2     1  UNL1        0.3040
     20 C           2.0000    0.9416    0.0000 C.3     1  UNL1        0.0332
     21 H           9.8737   -0.6107    0.0000 H       1  UNL1        0.0407
     22 H           9.6209   -0.9594    0.0000 H       1  UNL1        0.0651
     23 H           7.1962   -1.6784    0.0000 H       1  UNL1        0.0624
     24 H          10.5920   -0.6784    0.0000 H       1  UNL1        0.0237
     25 H          11.2120   -0.0584    0.0000 H       1  UNL1        0.0237
     26 H          10.5920    0.5616    0.0000 H       1  UNL1        0.0237
     27 H           5.8626    1.4165    0.0000 H       1  UNL1        0.0346
     28 H           5.0656    1.4165    0.0000 H       1  UNL1        0.0346
     29 H           7.8162    1.9416    0.0000 H       1  UNL1        0.0278
     30 H           7.1962    2.5616    0.0000 H       1  UNL1        0.0278
     31 H           6.5762    1.9416    0.0000 H       1  UNL1        0.0278
     32 H           9.9257   -1.9416    0.0000 H       1  UNL1        0.2103
     33 H           5.1541   -0.5215    0.0000 H       1  UNL1        0.0278
     34 H           4.9272   -1.3684    0.0000 H       1  UNL1        0.0278
     35 H           5.7741   -1.5954    0.0000 H       1  UNL1        0.0278
     36 H           4.1996   -0.0334    0.0000 H       1  UNL1        0.0701
     37 H           4.9966   -0.0334    0.0000 H       1  UNL1        0.0701
     38 H           2.3100    1.4785    0.0000 H       1  UNL1        0.0342
     39 H           1.4631    1.2516    0.0000 H       1  UNL1        0.0342
     40 H           1.6900    0.4046    0.0000 H       1  UNL1        0.0342
@<TRIPOS>BOND
     1     1     6    1
     2     1    32    1
     3     2     9    2
     4     3    18    1
     5     3    19    1
     6     4    19    2
     7     5     6    1
     8     5     9    1
     9     5    14    1
    10     5    21    1
    11     6     7    1
    12     6    22    1
    13     7     8   ar
    14     7    12   ar
    15     8     9    1
    16     8    10   ar
    17    10    11   ar
    18    10    16    1
    19    11    13   ar
    20    11    15    1
    21    12    13   ar
    22    12    23    1
    23    13    17    1
    24    14    24    1
    25    14    25    1
    26    14    26    1
    27    15    18    1
    28    15    27    1
    29    15    28    1
    30    16    29    1
    31    16    30    1
    32    16    31    1
    33    17    33    1
    34    17    34    1
    35    17    35    1
    36    18    36    1
    37    18    37    1
    38    19    20    1
    39    20    38    1
    40    20    39    1
    41    20    40    1
