@<TRIPOS>MOLECULE
IMPHY000864
 50 52 0 0 0
SMALL
GASTEIGER

@<TRIPOS>ATOM
      1 O           8.0901   -1.6117    0.0000 O.2     1  UNL1       -0.4215
      2 O           6.3301    1.4229    0.0000 O.3     1  UNL1       -0.4940
      3 O           4.5981   -1.5771    0.0000 O.3     1  UNL1       -0.4946
      4 O           9.8602   -1.6012    0.0000 O.2     1  UNL1       -0.2445
      5 O          10.7321   -1.0496    0.0000 O.3     1  UNL1       -0.5060
      6 O          12.4525    1.9571    0.0000 O.3     1  UNL1       -0.5066
      7 C           5.4641   -0.0771    0.0000 C.ar    1  UNL1        0.0403
      8 C           7.1962   -0.0771    0.0000 C.ar    1  UNL1        0.0603
      9 C           6.3301    0.4229    0.0000 C.ar    1  UNL1        0.1377
     10 C           7.1962   -1.0771    0.0000 C.ar    1  UNL1        0.1461
     11 C           4.5981    0.4229    0.0000 C.3     1  UNL1       -0.0023
     12 C           5.4641   -1.0771    0.0000 C.ar    1  UNL1        0.1306
     13 C           8.0901    0.4576    0.0000 C.ar    1  UNL1       -0.0329
     14 C           6.3301   -1.5771    0.0000 C.ar    1  UNL1        0.0236
     15 C           8.9962   -0.0563    0.0000 C.ar    1  UNL1        0.0708
     16 C           9.8602    0.4471    0.0000 C.ar    1  UNL1        0.0306
     17 C           3.7320   -0.0771    0.0000 C.2     1  UNL1       -0.0807
     18 C           8.9962   -1.0979    0.0000 C.ar    1  UNL1        0.3452
     19 C           2.8660    0.4229    0.0000 C.2     1  UNL1       -0.0793
     20 C          10.7282   -0.0496    0.0000 C.ar    1  UNL1        0.1282
     21 C           9.8564    1.4471    0.0000 C.ar    1  UNL1       -0.0469
     22 C           5.4641    1.9229    0.0000 C.3     1  UNL1        0.0788
     23 C          11.5923    0.4538    0.0000 C.ar    1  UNL1        0.0219
     24 C           2.0000   -0.0771    0.0000 C.3     1  UNL1       -0.0440
     25 C           2.8660    1.4229    0.0000 C.3     1  UNL1       -0.0440
     26 C          10.7205    1.9504    0.0000 C.ar    1  UNL1       -0.0194
     27 C          11.5884    1.4537    0.0000 C.ar    1  UNL1        0.1204
     28 C           4.5981   -2.5771    0.0000 C.3     1  UNL1        0.0788
     29 H           4.9966    0.8979    0.0000 H       1  UNL1        0.0358
     30 H           4.1996    0.8979    0.0000 H       1  UNL1        0.0358
     31 H           8.0829    1.0776    0.0000 H       1  UNL1        0.0634
     32 H           6.3301   -2.1971    0.0000 H       1  UNL1        0.0691
     33 H           3.7320   -0.6971    0.0000 H       1  UNL1        0.0575
     34 H           9.3183    1.7550    0.0000 H       1  UNL1        0.0626
     35 H          12.1304    0.1458    0.0000 H       1  UNL1        0.0691
     36 H           5.7741    2.4599    0.0000 H       1  UNL1        0.0660
     37 H           4.9272    2.2329    0.0000 H       1  UNL1        0.0660
     38 H           5.1541    1.3860    0.0000 H       1  UNL1        0.0660
     39 H           1.6900    0.4599    0.0000 H       1  UNL1        0.0274
     40 H           3.4860    1.4229    0.0000 H       1  UNL1        0.0274
     41 H           2.8660    2.0429    0.0000 H       1  UNL1        0.0274
     42 H           2.2460    1.4229    0.0000 H       1  UNL1        0.0274
     43 H           1.4631   -0.3871    0.0000 H       1  UNL1        0.0274
     44 H           2.3100   -0.6140    0.0000 H       1  UNL1        0.0274
     45 H          10.7181    2.5704    0.0000 H       1  UNL1        0.0654
     46 H           3.9781   -2.5771    0.0000 H       1  UNL1        0.0660
     47 H           4.5981   -3.1971    0.0000 H       1  UNL1        0.0660
     48 H           5.2181   -2.5771    0.0000 H       1  UNL1        0.0660
     49 H          11.2702   -1.3575    0.0000 H       1  UNL1        0.2922
     50 H          12.4501    2.5771    0.0000 H       1  UNL1        0.2921
@<TRIPOS>BOND
     1     1    10   ar
     2     1    18   ar
     3     2     9    1
     4     2    22    1
     5     3    12    1
     6     3    28    1
     7     4    18    2
     8     5    20    1
     9     5    49    1
    10     6    27    1
    11     6    50    1
    12     7     9   ar
    13     7    11    1
    14     7    12   ar
    15     8     9   ar
    16     8    10   ar
    17     8    13   ar
    18    10    14   ar
    19    11    17    1
    20    11    29    1
    21    11    30    1
    22    12    14   ar
    23    13    15   ar
    24    13    31    1
    25    14    32    1
    26    15    16    1
    27    15    18   ar
    28    16    20   ar
    29    16    21   ar
    30    17    19    2
    31    17    33    1
    32    19    24    1
    33    19    25    1
    34    20    23   ar
    35    21    26   ar
    36    21    34    1
    37    22    36    1
    38    22    37    1
    39    22    38    1
    40    23    27   ar
    41    23    35    1
    42    24    39    1
    43    24    43    1
    44    24    44    1
    45    25    40    1
    46    25    41    1
    47    25    42    1
    48    26    27   ar
    49    26    45    1
    50    28    46    1
    51    28    47    1
    52    28    48    1
