@<TRIPOS>MOLECULE
IMPHY016550
 42 42 0 0 0
SMALL
GASTEIGER

@<TRIPOS>ATOM
      1 O           8.9282    0.5000    0.0000 O.3     1  UNL1       -0.4609
      2 O           5.4641   -1.5000    0.0000 O.3     1  UNL1       -0.4611
      3 O           7.1962    0.5000    0.0000 O.2     1  UNL1       -0.2449
      4 O           6.3301    0.0000    0.0000 O.2     1  UNL1       -0.2449
      5 C           9.7942    2.0000    0.0000 C.3     1  UNL1       -0.0123
      6 C           8.9282    1.5000    0.0000 C.3     1  UNL1        0.0951
      7 C           3.7320   -1.5000    0.0000 C.3     1  UNL1       -0.0188
      8 C           9.7942    3.0000    0.0000 C.3     1  UNL1       -0.0596
      9 C          10.6603    1.5000    0.0000 C.3     1  UNL1       -0.0596
     10 C           2.8660   -1.0000    0.0000 C.3     1  UNL1       -0.0528
     11 C           4.5981   -1.0000    0.0000 C.3     1  UNL1        0.0928
     12 C           8.0622   -1.0000    0.0000 C.ar    1  UNL1        0.0729
     13 C           7.1962   -1.5000    0.0000 C.ar    1  UNL1        0.0729
     14 C           8.0622    0.0000    0.0000 C.2     1  UNL1        0.3400
     15 C           2.0000   -1.5000    0.0000 C.3     1  UNL1       -0.0652
     16 C           6.3301   -1.0000    0.0000 C.2     1  UNL1        0.3400
     17 C           8.9282   -1.5000    0.0000 C.ar    1  UNL1       -0.0470
     18 C           7.1962   -2.5000    0.0000 C.ar    1  UNL1       -0.0470
     19 C           8.9282   -2.5000    0.0000 C.ar    1  UNL1       -0.0609
     20 C           8.0622   -3.0000    0.0000 C.ar    1  UNL1       -0.0609
     21 H           9.2573    2.3100    0.0000 H       1  UNL1        0.0328
     22 H           8.7162    2.0826    0.0000 H       1  UNL1        0.0700
     23 H           8.3176    1.3923    0.0000 H       1  UNL1        0.0700
     24 H           3.3335   -1.9750    0.0000 H       1  UNL1        0.0298
     25 H           4.1306   -1.9750    0.0000 H       1  UNL1        0.0298
     26 H          10.4142    3.0000    0.0000 H       1  UNL1        0.0233
     27 H           9.7942    3.6200    0.0000 H       1  UNL1        0.0233
     28 H           9.1742    3.0000    0.0000 H       1  UNL1        0.0233
     29 H          10.3503    0.9631    0.0000 H       1  UNL1        0.0233
     30 H          11.1972    1.1900    0.0000 H       1  UNL1        0.0233
     31 H          10.9703    2.0369    0.0000 H       1  UNL1        0.0233
     32 H           3.2646   -0.5251    0.0000 H       1  UNL1        0.0264
     33 H           2.4675   -0.5251    0.0000 H       1  UNL1        0.0264
     34 H           4.9966   -0.5251    0.0000 H       1  UNL1        0.0697
     35 H           4.1996   -0.5251    0.0000 H       1  UNL1        0.0697
     36 H           1.6900   -0.9631    0.0000 H       1  UNL1        0.0230
     37 H           1.4631   -1.8100    0.0000 H       1  UNL1        0.0230
     38 H           2.3100   -2.0369    0.0000 H       1  UNL1        0.0230
     39 H           9.4651   -1.1900    0.0000 H       1  UNL1        0.0626
     40 H           6.6592   -2.8100    0.0000 H       1  UNL1        0.0626
     41 H           9.4651   -2.8100    0.0000 H       1  UNL1        0.0618
     42 H           8.0622   -3.6200    0.0000 H       1  UNL1        0.0618
@<TRIPOS>BOND
     1     1     6    1
     2     1    14    1
     3     2    11    1
     4     2    16    1
     5     3    14    2
     6     4    16    2
     7     5     6    1
     8     5     8    1
     9     5     9    1
    10     5    21    1
    11     6    22    1
    12     6    23    1
    13     7    10    1
    14     7    11    1
    15     7    24    1
    16     7    25    1
    17     8    26    1
    18     8    27    1
    19     8    28    1
    20     9    29    1
    21     9    30    1
    22     9    31    1
    23    10    15    1
    24    10    32    1
    25    10    33    1
    26    11    34    1
    27    11    35    1
    28    12    13   ar
    29    12    14    1
    30    12    17   ar
    31    13    16    1
    32    13    18   ar
    33    15    36    1
    34    15    37    1
    35    15    38    1
    36    17    19   ar
    37    17    39    1
    38    18    20   ar
    39    18    40    1
    40    19    20   ar
    41    19    41    1
    42    20    42    1
