@<TRIPOS>MOLECULE
IMPHY003029
 64 68 0 0 0
SMALL
GASTEIGER

@<TRIPOS>ATOM
      1 O           6.3507    0.8751    0.0000 O.3     1  UNL1       -0.4765
      2 O           5.0417   -1.2515    0.0000 O.3     1  UNL1       -0.3768
      3 O           5.5739   -2.4184    0.0000 O.3     1  UNL1       -0.3876
      4 O           7.3354   -3.3300    0.0000 O.3     1  UNL1       -0.4677
      5 O           3.7283   -1.2627    0.0000 O.3     1  UNL1       -0.4945
      6 O           8.7367   -2.3120    0.0000 O.2     1  UNL1       -0.2504
      7 O           2.9789    2.1969    0.0000 O.3     1  UNL1       -0.4949
      8 O           8.8965    3.2402    0.0000 O.3     1  UNL1       -0.4951
      9 C           6.6597   -0.0759    0.0000 C.3     1  UNL1        0.1782
     10 C           5.8507   -0.6637    0.0000 C.3     1  UNL1        0.1682
     11 C           7.4624   -0.6623    0.0000 C.3     1  UNL1        0.0468
     12 C           6.1603   -1.6083    0.0000 C.3     1  UNL1        0.1060
     13 C           7.1544   -1.6075    0.0000 C.3     1  UNL1        0.0962
     14 C           5.0417   -0.0759    0.0000 C.ar    1  UNL1        0.0741
     15 C           7.2189    0.7531    0.0000 C.ar    1  UNL1       -0.0003
     16 C           5.3507    0.8751    0.0000 C.ar    1  UNL1        0.1351
     17 C           8.4617   -0.6989    0.0000 C.ar    1  UNL1       -0.0392
     18 C           7.7422   -2.4165    0.0000 C.2     1  UNL1        0.3133
     19 C           4.0263   -0.3082    0.0000 C.ar    1  UNL1        0.1332
     20 C           6.7805    1.6519    0.0000 C.ar    1  UNL1       -0.0512
     21 C           8.2164    0.6834    0.0000 C.ar    1  UNL1       -0.0512
     22 C           4.6657    1.6599    0.0000 C.ar    1  UNL1        0.0224
     23 C           8.9297   -1.5827    0.0000 C.ar    1  UNL1       -0.0581
     24 C           8.9931    0.1482    0.0000 C.ar    1  UNL1       -0.0581
     25 C           3.3233    0.4605    0.0000 C.ar    1  UNL1        0.0224
     26 C           3.6452    1.4512    0.0000 C.ar    1  UNL1        0.1271
     27 C           7.3397    2.4810    0.0000 C.ar    1  UNL1       -0.0196
     28 C           8.7756    1.5124    0.0000 C.ar    1  UNL1       -0.0196
     29 C           9.9290   -1.6193    0.0000 C.ar    1  UNL1       -0.0615
     30 C           9.9924    0.1116    0.0000 C.ar    1  UNL1       -0.0615
     31 C           8.3373    2.4112    0.0000 C.ar    1  UNL1        0.1201
     32 C          10.4604   -0.7722    0.0000 C.ar    1  UNL1       -0.0617
     33 C           7.9232   -4.1390    0.0000 C.3     1  UNL1        0.0817
     34 C           2.7526   -1.4819    0.0000 C.3     1  UNL1        0.0788
     35 C           2.0000    1.9928    0.0000 C.3     1  UNL1        0.0788
     36 C           8.4581    4.1390    0.0000 C.3     1  UNL1        0.0788
     37 H           7.6655   -0.0765    0.0000 H       1  UNL1        0.0401
     38 H           5.5478   -1.5126    0.0000 H       1  UNL1        0.0635
     39 H           7.7668   -1.5107    0.0000 H       1  UNL1        0.0448
     40 H           5.1065   -1.8681    0.0000 H       1  UNL1        0.2109
     41 H           5.8271   -2.9843    0.0000 H       1  UNL1        0.2099
     42 H           6.1620    1.6952    0.0000 H       1  UNL1        0.0623
     43 H           8.4883    0.1261    0.0000 H       1  UNL1        0.0623
     44 H           4.8641    2.2473    0.0000 H       1  UNL1        0.0691
     45 H           8.6002   -2.1079    0.0000 H       1  UNL1        0.0620
     46 H           8.7030    0.6961    0.0000 H       1  UNL1        0.0620
     47 H           2.7174    0.3293    0.0000 H       1  UNL1        0.0691
     48 H           7.0679    3.0382    0.0000 H       1  UNL1        0.0654
     49 H           9.3941    1.4692    0.0000 H       1  UNL1        0.0654
     50 H          10.2191   -2.1672    0.0000 H       1  UNL1        0.0618
     51 H          10.3219    0.6368    0.0000 H       1  UNL1        0.0618
     52 H          11.0800   -0.7949    0.0000 H       1  UNL1        0.0618
     53 H           7.4216   -4.5035    0.0000 H       1  UNL1        0.0661
     54 H           8.2877   -4.6406    0.0000 H       1  UNL1        0.0661
     55 H           8.4248   -3.7746    0.0000 H       1  UNL1        0.0661
     56 H           2.6167   -0.8770    0.0000 H       1  UNL1        0.0660
     57 H           2.1477   -1.6178    0.0000 H       1  UNL1        0.0660
     58 H           2.8885   -2.0868    0.0000 H       1  UNL1        0.0660
     59 H           1.8734    2.5997    0.0000 H       1  UNL1        0.0660
     60 H           1.3931    1.8662    0.0000 H       1  UNL1        0.0660
     61 H           2.1266    1.3858    0.0000 H       1  UNL1        0.0660
     62 H           9.0154    4.4108    0.0000 H       1  UNL1        0.0660
     63 H           8.1863    4.6963    0.0000 H       1  UNL1        0.0660
     64 H           7.9008    3.8672    0.0000 H       1  UNL1        0.0660
@<TRIPOS>BOND
     1     1     9    1
     2     1    16    1
     3    10     2    1
     4     2    40    1
     5    12     3    1
     6     3    41    1
     7     4    18    1
     8     4    33    1
     9     5    19    1
    10     5    34    1
    11     6    18    2
    12     7    26    1
    13     7    35    1
    14     8    31    1
    15     8    36    1
    16     9    10    1
    17     9    11    1
    18     9    15    1
    19    10    12    1
    20    10    14    1
    21    11    13    1
    22    11    17    1
    23    11    37    1
    24    12    13    1
    25    12    38    1
    26    13    18    1
    27    13    39    1
    28    14    16   ar
    29    14    19   ar
    30    15    20   ar
    31    15    21   ar
    32    16    22   ar
    33    17    23   ar
    34    17    24   ar
    35    19    25   ar
    36    20    27   ar
    37    20    42    1
    38    21    28   ar
    39    21    43    1
    40    22    26   ar
    41    22    44    1
    42    23    29   ar
    43    23    45    1
    44    24    30   ar
    45    24    46    1
    46    25    26   ar
    47    25    47    1
    48    27    31   ar
    49    27    48    1
    50    28    31   ar
    51    28    49    1
    52    29    32   ar
    53    29    50    1
    54    30    32   ar
    55    30    51    1
    56    32    52    1
    57    33    53    1
    58    33    54    1
    59    33    55    1
    60    34    56    1
    61    34    57    1
    62    34    58    1
    63    35    59    1
    64    35    60    1
    65    35    61    1
    66    36    62    1
    67    36    63    1
    68    36    64    1
