@<TRIPOS>MOLECULE
IMPHY015674
 30 31 0 0 0
SMALL
GASTEIGER

@<TRIPOS>ATOM
      1 O           2.8954   -3.6807    0.0000 O.3     1  UNL1       -0.3360
      2 O           2.8954   -2.5051    0.0000 O.2     1  UNL1       -0.4568
      3 C           3.7044   -3.0929    0.0000 C.3     1  UNL1        0.2328
      4 C           4.5134   -3.6807    0.0000 C.3     1  UNL1        0.0191
      5 C           4.2044   -4.6317    0.0000 C.3     1  UNL1       -0.0230
      6 C           3.2044   -4.6317    0.0000 C.3     1  UNL1        0.0525
      7 C           4.5134   -2.5051    0.0000 C.2     1  UNL1       -0.0098
      8 C           4.2044   -1.5540    0.0000 C.2     1  UNL1       -0.0170
      9 C           3.2044   -1.5540    0.0000 C.2     1  UNL1        0.1326
     10 C           2.6166   -0.7450    0.0000 C.2     1  UNL1        0.0312
     11 C           3.0233    0.1685    0.0000 C.1     1  UNL1       -0.0567
     12 C           3.4301    1.0821    0.0000 C.1     1  UNL1       -0.0100
     13 C           4.6503    3.8227    0.0000 C.3     1  UNL1        0.0072
     14 C           4.0625    4.6317    0.0000 C.3     1  UNL1       -0.0543
     15 C           3.8368    1.9956    0.0000 C.1     1  UNL1       -0.0145
     16 C           4.2436    2.9092    0.0000 C.1     1  UNL1       -0.0887
     17 H           5.0798   -3.9328    0.0000 H       1  UNL1        0.0333
     18 H           4.8234   -3.1437    0.0000 H       1  UNL1        0.0333
     19 H           4.1396   -5.2483    0.0000 H       1  UNL1        0.0289
     20 H           4.8108   -4.7606    0.0000 H       1  UNL1        0.0289
     21 H           2.5979   -4.7606    0.0000 H       1  UNL1        0.0561
     22 H           3.2692   -5.2483    0.0000 H       1  UNL1        0.0561
     23 H           5.1031   -2.6967    0.0000 H       1  UNL1        0.0638
     24 H           4.5688   -1.0525    0.0000 H       1  UNL1        0.0653
     25 H           2.0000   -0.8098    0.0000 H       1  UNL1        0.0749
     26 H           5.1643    3.4760    0.0000 H       1  UNL1        0.0395
     27 H           5.0810    4.2687    0.0000 H       1  UNL1        0.0395
     28 H           4.5641    4.9962    0.0000 H       1  UNL1        0.0239
     29 H           3.6981    5.1333    0.0000 H       1  UNL1        0.0239
     30 H           3.5609    4.2673    0.0000 H       1  UNL1        0.0239
@<TRIPOS>BOND
     1     1     3    1
     2     1     6    1
     3     2     3    1
     4     2     9    1
     5     3     4    1
     6     3     7    1
     7     4     5    1
     8     4    17    1
     9     4    18    1
    10     5     6    1
    11     5    19    1
    12     5    20    1
    13     6    21    1
    14     6    22    1
    15     7     8    2
    16     7    23    1
    17     8     9    1
    18     8    24    1
    19     9    10    2
    20    10    11    1
    21    10    25    1
    22    11    12    3
    23    12    15    1
    24    13    14    1
    25    13    16    1
    26    13    26    1
    27    13    27    1
    28    14    28    1
    29    14    29    1
    30    14    30    1
    31    15    16    3
