@<TRIPOS>MOLECULE
IMPHY009914
 27 26 0 0 0
SMALL
GASTEIGER

@<TRIPOS>ATOM
      1 SE          7.1962   -0.2500    0.0000 Se      1  UNL1        0.0000
      2 S           9.7942    0.2500    0.0000 S.3     1  UNL1        0.0000
      3 S           4.5981    0.2500    0.0000 S.3     1  UNL1        0.0000
      4 S           8.0622    0.2500    0.0000 S.3     1  UNL1        0.0000
      5 S           6.3301    0.2500    0.0000 S.3     1  UNL1        0.0000
      6 C          10.6603   -0.2500    0.0000 C.3     1  UNL1        0.0000
      7 C           3.7320   -0.2500    0.0000 C.3     1  UNL1        0.0000
      8 C           8.9282   -0.2500    0.0000 C.3     1  UNL1        0.0000
      9 C           5.4641   -0.2500    0.0000 C.3     1  UNL1        0.0000
     10 C          11.5263    0.2500    0.0000 C.2     1  UNL1        0.0000
     11 C           2.8660    0.2500    0.0000 C.2     1  UNL1        0.0000
     12 C          12.3923   -0.2500    0.0000 C.2     1  UNL1        0.0000
     13 C           2.0000   -0.2500    0.0000 C.2     1  UNL1        0.0000
     14 H          10.2617   -0.7249    0.0000 H       1  UNL1        0.0000
     15 H           3.3335   -0.7249    0.0000 H       1  UNL1        0.0000
     16 H           4.1306   -0.7249    0.0000 H       1  UNL1        0.0000
     17 H          11.0588   -0.7249    0.0000 H       1  UNL1        0.0000
     18 H           5.0656   -0.7249    0.0000 H       1  UNL1        0.0000
     19 H           5.8626   -0.7249    0.0000 H       1  UNL1        0.0000
     20 H           8.5297   -0.7249    0.0000 H       1  UNL1        0.0000
     21 H           9.3267   -0.7249    0.0000 H       1  UNL1        0.0000
     22 H          11.5263    0.8700    0.0000 H       1  UNL1        0.0000
     23 H           2.8660    0.8700    0.0000 H       1  UNL1        0.0000
     24 H          12.3923   -0.8700    0.0000 H       1  UNL1        0.0000
     25 H          12.9292    0.0600    0.0000 H       1  UNL1        0.0000
     26 H           1.4631    0.0600    0.0000 H       1  UNL1        0.0000
     27 H           2.0000   -0.8700    0.0000 H       1  UNL1        0.0000
@<TRIPOS>BOND
     1     1     4    1
     2     1     5    1
     3     2     6    1
     4     2     8    1
     5     3     7    1
     6     3     9    1
     7     4     8    1
     8     5     9    1
     9     6    10    1
    10     6    14    1
    11     6    17    1
    12     7    11    1
    13     7    15    1
    14     7    16    1
    15     8    20    1
    16     8    21    1
    17     9    18    1
    18     9    19    1
    19    10    12    2
    20    10    22    1
    21    11    13    2
    22    11    23    1
    23    12    24    1
    24    12    25    1
    25    13    26    1
    26    13    27    1
