@<TRIPOS>MOLECULE
IMPHY008892
 57 59 0 0 0
SMALL
GASTEIGER

@<TRIPOS>ATOM
      1 O           8.0926    2.9607    0.0000 O.3     1  UNL1       -0.4599
      2 O          10.1046   -0.5023    0.0000 O.2     1  UNL1       -0.4919
      3 O           8.3010   -1.7189    0.0000 O.2     1  UNL1       -0.2884
      4 O           6.5926    3.8268    0.0000 O.2     1  UNL1       -0.2512
      5 O           5.7159   -3.8268    0.0000 O.3     1  UNL1       -0.4914
      6 O           3.7159   -3.8268    0.0000 O.3     1  UNL1       -0.4915
      7 C           6.8560    1.1121    0.0000 C.3     1  UNL1        0.0367
      8 C           5.4571    0.6033    0.0000 C.3     1  UNL1       -0.0234
      9 C           5.7159   -0.3627    0.0000 C.3     1  UNL1        0.0011
     10 C           7.1148    0.1462    0.0000 C.3     1  UNL1        0.0700
     11 C           7.5926    2.0947    0.0000 C.3     1  UNL1        0.1231
     12 C           6.5972    2.0780    0.0000 C.3     1  UNL1       -0.0221
     13 C           8.8893    0.8010    0.0000 C.2     1  UNL1       -0.0285
     14 C           8.3359   -0.7195    0.0000 C.2     1  UNL1        0.2042
     15 C           4.5911    1.1033    0.0000 C.3     1  UNL1       -0.0609
     16 C           5.2159   -1.2287    0.0000 C.ar    1  UNL1       -0.0395
     17 C           9.1649   -0.1603    0.0000 C.2     1  UNL1        0.1595
     18 C           5.6313    2.3368    0.0000 C.2     1  UNL1       -0.0902
     19 C           5.7159   -2.0947    0.0000 C.ar    1  UNL1       -0.0128
     20 C           4.2159   -1.2287    0.0000 C.ar    1  UNL1       -0.0546
     21 C           7.5926    3.8268    0.0000 C.2     1  UNL1        0.3043
     22 C           5.2159   -2.9607    0.0000 C.ar    1  UNL1        0.1617
     23 C           3.7159   -2.0947    0.0000 C.ar    1  UNL1       -0.0160
     24 C           5.3725    3.3028    0.0000 C.2     1  UNL1       -0.1026
     25 C           4.2159   -2.9607    0.0000 C.ar    1  UNL1        0.1615
     26 C          10.8706    0.1405    0.0000 C.3     1  UNL1        0.0789
     27 C           8.0926    4.6928    0.0000 C.3     1  UNL1        0.0332
     28 C           5.2159   -4.6928    0.0000 C.3     1  UNL1        0.0790
     29 C           2.7159   -3.8268    0.0000 C.3     1  UNL1        0.0790
     30 H           4.9652    0.2258    0.0000 H       1  UNL1        0.0314
     31 H           6.1144   -0.8376    0.0000 H       1  UNL1        0.0360
     32 H           7.3348   -0.6749    0.0000 H       1  UNL1        0.0425
     33 H           7.0752    2.4363    0.0000 H       1  UNL1        0.0750
     34 H           6.6512    2.6957    0.0000 H       1  UNL1        0.0317
     35 H           7.2148    2.1320    0.0000 H       1  UNL1        0.0317
     36 H           9.2989    1.2664    0.0000 H       1  UNL1        0.0616
     37 H           4.2811    0.5663    0.0000 H       1  UNL1        0.0233
     38 H           4.0541    1.4133    0.0000 H       1  UNL1        0.0233
     39 H           4.9011    1.6402    0.0000 H       1  UNL1        0.0233
     40 H           5.1929    1.8984    0.0000 H       1  UNL1        0.0567
     41 H           6.3359   -2.0947    0.0000 H       1  UNL1        0.0658
     42 H           3.9059   -0.6917    0.0000 H       1  UNL1        0.0622
     43 H           3.0959   -2.0947    0.0000 H       1  UNL1        0.0655
     44 H           4.7736    3.4632    0.0000 H       1  UNL1        0.0532
     45 H           5.8109    3.7412    0.0000 H       1  UNL1        0.0532
     46 H          10.4721    0.6154    0.0000 H       1  UNL1        0.0660
     47 H          11.3456    0.5390    0.0000 H       1  UNL1        0.0660
     48 H          11.2692   -0.3345    0.0000 H       1  UNL1        0.0660
     49 H           7.5557    5.0028    0.0000 H       1  UNL1        0.0342
     50 H           8.4026    5.2297    0.0000 H       1  UNL1        0.0342
     51 H           8.6296    4.3828    0.0000 H       1  UNL1        0.0342
     52 H           5.7528   -5.0028    0.0000 H       1  UNL1        0.0660
     53 H           4.9059   -5.2297    0.0000 H       1  UNL1        0.0660
     54 H           4.6790   -4.3828    0.0000 H       1  UNL1        0.0660
     55 H           2.7159   -4.4468    0.0000 H       1  UNL1        0.0660
     56 H           2.0959   -3.8268    0.0000 H       1  UNL1        0.0660
     57 H           2.7159   -3.2068    0.0000 H       1  UNL1        0.0660
@<TRIPOS>BOND
     1    11     1    1
     2     1    21    1
     3     2    17    1
     4     2    26    1
     5     3    14    2
     6     4    21    2
     7     5    22    1
     8     5    28    1
     9     6    25    1
    10     6    29    1
    11     7     8    1
    12     7    11    1
    13     7    12    1
    14     7    13    1
    15     8     9    1
    16     8    15    1
    17     8    30    1
    18     9    10    1
    19     9    16    1
    20     9    31    1
    21    10    11    1
    22    10    14    1
    23    10    32    1
    24    11    33    1
    25    12    18    1
    26    12    34    1
    27    12    35    1
    28    13    17    2
    29    13    36    1
    30    14    17    1
    31    15    37    1
    32    15    38    1
    33    15    39    1
    34    16    19   ar
    35    16    20   ar
    36    18    24    2
    37    18    40    1
    38    19    22   ar
    39    19    41    1
    40    20    23   ar
    41    20    42    1
    42    21    27    1
    43    22    25   ar
    44    23    25   ar
    45    23    43    1
    46    24    44    1
    47    24    45    1
    48    26    46    1
    49    26    47    1
    50    26    48    1
    51    27    49    1
    52    27    50    1
    53    27    51    1
    54    28    52    1
    55    28    53    1
    56    28    54    1
    57    29    55    1
    58    29    56    1
    59    29    57    1
