@<TRIPOS>MOLECULE
IMPHY010825
 31 34 0 0 0
SMALL
GASTEIGER

@<TRIPOS>ATOM
      1 O           2.8660    1.0000    0.0000 O.3     1  UNL1       -0.3184
      2 O           3.7321   -0.5000    0.0000 O.3     1  UNL1       -0.4470
      3 O           5.4641    2.5000    0.0000 O.3     1  UNL1       -0.2173
      4 O           3.7321    3.5000    0.0000 O.3     1  UNL1       -0.2177
      5 O           5.4641    0.5000    0.0000 O.3     1  UNL1       -0.2135
      6 O           7.2241   -0.4653    0.0000 O.2     1  UNL1       -0.4531
      7 O           3.7321   -2.5000    0.0000 O.3     1  UNL1       -0.2799
      8 O           5.4641   -3.5000    0.0000 O.3     1  UNL1       -0.2828
      9 O           7.2125   -3.5346    0.0000 O.2     1  UNL1       -0.2862
     10 O          11.5865    1.0342    0.0000 O.3     1  UNL1       -0.2866
     11 C           4.5981    2.0000    0.0000 C.3     1  UNL1        0.2210
     12 C           3.7321    2.5000    0.0000 C.3     1  UNL1        0.2119
     13 C           4.5981    1.0000    0.0000 C.3     1  UNL1        0.2541
     14 C           2.8660    2.0000    0.0000 C.3     1  UNL1        0.1519
     15 C           3.7321    0.5000    0.0000 C.3     1  UNL1        0.3218
     16 C           2.0000    2.5000    0.0000 C.3     1  UNL1        0.0350
     17 C           4.5981   -1.0000    0.0000 C.ar    1  UNL1        0.1863
     18 C           5.4641   -0.5000    0.0000 C.ar    1  UNL1        0.0781
     19 C           4.5981   -2.0000    0.0000 C.ar    1  UNL1        0.2681
     20 C           6.3301   -1.0000    0.0000 C.ar    1  UNL1        0.1547
     21 C           6.3301   -2.0000    0.0000 C.ar    1  UNL1        0.1158
     22 C           5.4641   -2.5000    0.0000 C.ar    1  UNL1        0.2433
     23 C           7.2241   -2.5347    0.0000 C.ar    1  UNL1        0.2049
     24 C           8.1301   -0.9792    0.0000 C.ar    1  UNL1        0.1484
     25 C           8.1301   -2.0208    0.0000 C.ar    1  UNL1        0.0797
     26 C           8.9942   -0.4759    0.0000 C.ar    1  UNL1        0.0349
     27 C           8.9904    0.5241    0.0000 C.ar    1  UNL1        0.0063
     28 C           9.8622   -0.9725    0.0000 C.ar    1  UNL1        0.0063
     29 C           9.8545    1.0275    0.0000 C.ar    1  UNL1        0.0421
     30 C          10.7263   -0.4692    0.0000 C.ar    1  UNL1        0.0421
     31 C          10.7224    0.5308    0.0000 C.ar    1  UNL1        0.1957
@<TRIPOS>BOND
     1     1    14    1
     2     1    15    1
     3     2    17    1
     4     6    20   ar
     5     6    24   ar
     6     7    19    1
     7     8    22    1
     8     9    23    2
     9    10    31    1
    10    11     3    1
    11    11    12    1
    12    11    13    1
    13    12     4    1
    14    12    14    1
    15    13     5    1
    16    13    15    1
    17    14    16    1
    18    15     2    1
    19    17    18   ar
    20    17    19   ar
    21    18    20   ar
    22    19    22   ar
    23    20    21   ar
    24    21    22   ar
    25    21    23   ar
    26    23    25   ar
    27    24    25   ar
    28    24    26    1
    29    26    27   ar
    30    26    28   ar
    31    27    29   ar
    32    28    30   ar
    33    29    31   ar
    34    30    31   ar
