@<TRIPOS>MOLECULE
IMPHY009530
 24 24 0 0 0
SMALL
GASTEIGER

@<TRIPOS>ATOM
      1 C           3.7320    0.7500    0.0000 C.ar    1  UNL1       -0.0447
      2 C           2.8660    0.2500    0.0000 C.ar    1  UNL1       -0.0470
      3 C           3.7320    1.7500    0.0000 C.3     1  UNL1       -0.0303
      4 C           3.7320   -1.2500    0.0000 C.ar    1  UNL1       -0.0502
      5 C           2.8660   -0.7500    0.0000 C.ar    1  UNL1       -0.0557
      6 C           4.5981    0.2500    0.0000 C.ar    1  UNL1       -0.0581
      7 C           4.5981   -0.7500    0.0000 C.ar    1  UNL1       -0.0586
      8 C           2.0000    0.7500    0.0000 C.3     1  UNL1       -0.0394
      9 C           4.5981    2.2500    0.0000 C.3     1  UNL1       -0.0613
     10 C           3.7320   -2.2500    0.0000 C.3     1  UNL1       -0.0397
     11 H           3.5200    2.3326    0.0000 H       1  UNL1        0.0311
     12 H           3.1215    1.6423    0.0000 H       1  UNL1        0.0311
     13 H           2.3291   -1.0600    0.0000 H       1  UNL1        0.0623
     14 H           5.1350    0.5600    0.0000 H       1  UNL1        0.0620
     15 H           5.1350   -1.0600    0.0000 H       1  UNL1        0.0620
     16 H           2.3100    1.2869    0.0000 H       1  UNL1        0.0278
     17 H           1.4631    1.0600    0.0000 H       1  UNL1        0.0278
     18 H           1.6900    0.2131    0.0000 H       1  UNL1        0.0278
     19 H           4.9081    1.7131    0.0000 H       1  UNL1        0.0233
     20 H           5.1350    2.5600    0.0000 H       1  UNL1        0.0233
     21 H           4.2881    2.7869    0.0000 H       1  UNL1        0.0233
     22 H           3.1120   -2.2500    0.0000 H       1  UNL1        0.0278
     23 H           3.7320   -2.8700    0.0000 H       1  UNL1        0.0278
     24 H           4.3520   -2.2500    0.0000 H       1  UNL1        0.0278
@<TRIPOS>BOND
     1     1     2   ar
     2     1     3    1
     3     1     6   ar
     4     2     5   ar
     5     2     8    1
     6     3     9    1
     7     3    11    1
     8     3    12    1
     9     4     5   ar
    10     4     7   ar
    11     4    10    1
    12     5    13    1
    13     6     7   ar
    14     6    14    1
    15     7    15    1
    16     8    16    1
    17     8    17    1
    18     8    18    1
    19     9    19    1
    20     9    20    1
    21     9    21    1
    22    10    22    1
    23    10    23    1
    24    10    24    1
