@<TRIPOS>MOLECULE
IMPHY012368
 47 51 0 0 0
SMALL
GASTEIGER

@<TRIPOS>ATOM
      1 O           6.1391   -0.1619    0.0000 O.3     1  UNL1       -0.3512
      2 O           3.7183   -0.7511    0.0000 O.3     1  UNL1       -0.3792
      3 N           8.1709    0.6302    0.0000 N.3     1  UNL1       -0.2944
      4 N           5.0274    1.3755    0.0000 N.pl3   1  UNL1       -0.3125
      5 C           6.1454    1.0122    0.0000 C.3     1  UNL1        0.0596
      6 C           5.3364    0.4245    0.0000 C.3     1  UNL1        0.1825
      7 C           7.5831    1.4392    0.0000 C.3     1  UNL1       -0.0309
      8 C           6.3018    1.9999    0.0000 C.3     1  UNL1       -0.0295
      9 C           4.5274   -0.1633    0.0000 C.3     1  UNL1        0.1415
     10 C           6.8216   -0.4836    0.0000 C.3     1  UNL1       -0.0075
     11 C           7.7671   -0.8092    0.0000 C.3     1  UNL1        0.0058
     12 C           8.8589    2.2062    0.0000 C.3     1  UNL1       -0.0367
     13 C           9.4467    1.3971    0.0000 C.3     1  UNL1       -0.0004
     14 C           4.8370   -1.1080    0.0000 C.3     1  UNL1        0.0083
     15 C           3.7183    0.4245    0.0000 C.ar    1  UNL1        0.0093
     16 C           5.8311   -1.1071    0.0000 C.3     1  UNL1        0.0535
     17 C           4.0274    1.3755    0.0000 C.ar    1  UNL1        0.0354
     18 C           6.4148   -1.3971    0.0000 C.2     1  UNL1       -0.0865
     19 C           2.7029    0.1922    0.0000 C.ar    1  UNL1       -0.0539
     20 C           3.3424    2.1602    0.0000 C.ar    1  UNL1       -0.0404
     21 C           2.0000    0.9609    0.0000 C.ar    1  UNL1       -0.0613
     22 C           2.3219    1.9515    0.0000 C.ar    1  UNL1       -0.0600
     23 C           7.0027   -2.2062    0.0000 C.2     1  UNL1       -0.1023
     24 H           5.6168    1.3362    0.0000 H       1  UNL1        0.0509
     25 H           8.0560    1.0382    0.0000 H       1  UNL1        0.0308
     26 H           6.5012    2.5870    0.0000 H       1  UNL1        0.0285
     27 H           5.6999    2.1486    0.0000 H       1  UNL1        0.0285
     28 H           6.2501   -0.2433    0.0000 H       1  UNL1        0.0358
     29 H           7.5767   -1.3992    0.0000 H       1  UNL1        0.0432
     30 H           8.3607   -0.9882    0.0000 H       1  UNL1        0.0432
     31 H           9.3709    2.5559    0.0000 H       1  UNL1        0.0280
     32 H           8.5242    2.7280    0.0000 H       1  UNL1        0.0280
     33 H           9.7814    0.8753    0.0000 H       1  UNL1        0.0427
     34 H           9.9587    1.7469    0.0000 H       1  UNL1        0.0427
     35 H           4.2308   -1.2381    0.0000 H       1  UNL1        0.0320
     36 H           4.9027   -1.7245    0.0000 H       1  UNL1        0.0320
     37 H           5.3918    1.8771    0.0000 H       1  UNL1        0.1489
     38 H           5.7664   -1.7237    0.0000 H       1  UNL1        0.0562
     39 H           6.4375   -1.2362    0.0000 H       1  UNL1        0.0562
     40 H           5.7982   -1.4620    0.0000 H       1  UNL1        0.0570
     41 H           3.7832   -1.3677    0.0000 H       1  UNL1        0.2108
     42 H           2.5182   -0.3996    0.0000 H       1  UNL1        0.0622
     43 H           3.5408    2.7476    0.0000 H       1  UNL1        0.0636
     44 H           1.3940    0.8296    0.0000 H       1  UNL1        0.0618
     45 H           1.9088    2.4139    0.0000 H       1  UNL1        0.0618
     46 H           6.7505   -2.7726    0.0000 H       1  UNL1        0.0532
     47 H           7.6193   -2.1413    0.0000 H       1  UNL1        0.0532
@<TRIPOS>BOND
     1     1     6    1
     2     1    16    1
     3     2     9    1
     4     2    41    1
     5     3     5    1
     6     3    11    1
     7     3    13    1
     8     4     6    1
     9     4    17    1
    10     4    37    1
    11     5     6    1
    12     5     8    1
    13     5    24    1
    14     6     9    1
    15     7     8    1
    16     7    10    1
    17     7    12    1
    18     7    25    1
    19     8    26    1
    20     8    27    1
    21     9    14    1
    22     9    15    1
    23    10    11    1
    24    10    18    1
    25    10    28    1
    26    11    29    1
    27    11    30    1
    28    12    13    1
    29    12    31    1
    30    12    32    1
    31    13    33    1
    32    13    34    1
    33    14    16    1
    34    14    35    1
    35    14    36    1
    36    15    17   ar
    37    15    19   ar
    38    16    38    1
    39    16    39    1
    40    17    20   ar
    41    18    23    2
    42    18    40    1
    43    19    21   ar
    44    19    42    1
    45    20    22   ar
    46    20    43    1
    47    21    22   ar
    48    21    44    1
    49    22    45    1
    50    23    46    1
    51    23    47    1
