@<TRIPOS>MOLECULE
IMPHY001437
 78 82 0 0 0
SMALL
GASTEIGER

@<TRIPOS>ATOM
      1 O          11.1246    2.5364    0.0000 O.3     1  UNL1       -0.3915
      2 C           5.7847   -0.6080    0.0000 C.3     1  UNL1       -0.0194
      3 C           6.6507   -1.1080    0.0000 C.3     1  UNL1       -0.0196
      4 C           4.8746   -1.1148    0.0000 C.3     1  UNL1       -0.0289
      5 C           4.8666   -2.1564    0.0000 C.3     1  UNL1       -0.0287
      6 C           7.5167   -0.6080    0.0000 C.3     1  UNL1       -0.0137
      7 C           6.6667   -2.1495    0.0000 C.3     1  UNL1       -0.0461
      8 C           5.7687   -2.6772    0.0000 C.3     1  UNL1       -0.0468
      9 C           5.7847    0.3920    0.0000 C.3     1  UNL1       -0.0283
     10 C           7.5167    0.3920    0.0000 C.2     1  UNL1       -0.0662
     11 C           3.9478   -0.5507    0.0000 C.3     1  UNL1       -0.0440
     12 C           9.3167    0.4128    0.0000 C.3     1  UNL1       -0.0206
     13 C           8.4106    0.9267    0.0000 C.3     1  UNL1       -0.0138
     14 C           3.9312   -2.7062    0.0000 C.3     1  UNL1       -0.0469
     15 C           8.4106   -1.1426    0.0000 C.3     1  UNL1       -0.0455
     16 C           2.9999   -1.0787    0.0000 C.3     1  UNL1       -0.0346
     17 C           4.9186   -0.1080    0.0000 C.3     1  UNL1       -0.0585
     18 C           7.5167   -1.6080    0.0000 C.3     1  UNL1       -0.0585
     19 C           9.3167   -0.6288    0.0000 C.3     1  UNL1       -0.0462
     20 C           6.6507    0.8920    0.0000 C.2     1  UNL1       -0.0837
     21 C           2.9916   -2.1636    0.0000 C.3     1  UNL1       -0.0474
     22 C           4.8589   -3.1564    0.0000 C.3     1  UNL1       -0.0593
     23 C          10.2605    0.9481    0.0000 C.3     1  UNL1       -0.0119
     24 C           8.3856    2.0114    0.0000 C.3     1  UNL1       -0.0437
     25 C          10.2605    2.0331    0.0000 C.3     1  UNL1        0.0583
     26 C          10.1866   -0.0805    0.0000 C.3     1  UNL1       -0.0587
     27 C           9.3167    2.5683    0.0000 C.3     1  UNL1       -0.0260
     28 C           2.0000   -1.0671    0.0000 C.3     1  UNL1       -0.0598
     29 C           2.5100   -0.2069    0.0000 C.3     1  UNL1       -0.0598
     30 C          11.1246    0.4447    0.0000 C.3     1  UNL1       -0.0596
     31 H           5.6058   -1.5483    0.0000 H       1  UNL1        0.0312
     32 H           8.2561   -0.1887    0.0000 H       1  UNL1        0.0351
     33 H           6.8848   -2.7299    0.0000 H       1  UNL1        0.0271
     34 H           7.2759   -2.0340    0.0000 H       1  UNL1        0.0271
     35 H           5.3714   -3.1532    0.0000 H       1  UNL1        0.0271
     36 H           6.1697   -3.1501    0.0000 H       1  UNL1        0.0271
     37 H           5.5726    0.9746    0.0000 H       1  UNL1        0.0313
     38 H           5.1741    0.2844    0.0000 H       1  UNL1        0.0313
     39 H           4.3560   -0.0841    0.0000 H       1  UNL1        0.0273
     40 H           3.5579   -0.0687    0.0000 H       1  UNL1        0.0273
     41 H           9.1401    1.3630    0.0000 H       1  UNL1        0.0351
     42 H           3.5339   -3.1821    0.0000 H       1  UNL1        0.0271
     43 H           4.3322   -3.1790    0.0000 H       1  UNL1        0.0271
     44 H           8.0060   -1.6124    0.0000 H       1  UNL1        0.0271
     45 H           8.8043   -1.6217    0.0000 H       1  UNL1        0.0271
     46 H           5.2286    0.4290    0.0000 H       1  UNL1        0.0235
     47 H           4.3817    0.2020    0.0000 H       1  UNL1        0.0235
     48 H           4.6086   -0.6449    0.0000 H       1  UNL1        0.0235
     49 H           7.2067   -2.1449    0.0000 H       1  UNL1        0.0235
     50 H           8.0536   -1.9180    0.0000 H       1  UNL1        0.0235
     51 H           7.8267   -1.0710    0.0000 H       1  UNL1        0.0235
     52 H           9.5258   -1.2125    0.0000 H       1  UNL1        0.0271
     53 H           9.9276   -0.5227    0.0000 H       1  UNL1        0.0271
     54 H           6.6507    1.5120    0.0000 H       1  UNL1        0.0572
     55 H           2.3816   -2.0529    0.0000 H       1  UNL1        0.0271
     56 H           2.7780   -2.7457    0.0000 H       1  UNL1        0.0271
     57 H           4.2389   -3.1516    0.0000 H       1  UNL1        0.0235
     58 H           4.8541   -3.7764    0.0000 H       1  UNL1        0.0235
     59 H           5.4789   -3.1612    0.0000 H       1  UNL1        0.0235
     60 H          10.7980    1.2570    0.0000 H       1  UNL1        0.0328
     61 H           8.1631    2.5901    0.0000 H       1  UNL1        0.0272
     62 H           7.7773    1.8912    0.0000 H       1  UNL1        0.0272
     63 H          10.7980    1.7241    0.0000 H       1  UNL1        0.0596
     64 H           9.8807   -0.6198    0.0000 H       1  UNL1        0.0235
     65 H          10.7259   -0.3863    0.0000 H       1  UNL1        0.0235
     66 H          10.4924    0.4588    0.0000 H       1  UNL1        0.0235
     67 H           9.7103    3.0473    0.0000 H       1  UNL1        0.0290
     68 H           8.9121    3.0381    0.0000 H       1  UNL1        0.0290
     69 H           3.0505    0.0968    0.0000 H       1  UNL1        0.0235
     70 H           2.2062    0.3335    0.0000 H       1  UNL1        0.0235
     71 H           1.9695   -0.5107    0.0000 H       1  UNL1        0.0235
     72 H           2.0072   -0.4472    0.0000 H       1  UNL1        0.0235
     73 H           1.3800   -1.0600    0.0000 H       1  UNL1        0.0235
     74 H           1.9928   -1.6871    0.0000 H       1  UNL1        0.0235
     75 H          10.8125   -0.0910    0.0000 H       1  UNL1        0.0233
     76 H          11.6603    0.1327    0.0000 H       1  UNL1        0.0233
     77 H          11.4367    0.9805    0.0000 H       1  UNL1        0.0233
     78 H          11.1222    3.1564    0.0000 H       1  UNL1        0.2098
@<TRIPOS>BOND
     1    25     1    1
     2     1    78    1
     3     2     3    1
     4     2     4    1
     5     2     9    1
     6     2    17    1
     7     3     6    1
     8     3     7    1
     9     3    18    1
    10     4     5    1
    11     4    11    1
    12     4    31    1
    13     5     8    1
    14     5    14    1
    15     5    22    1
    16     6    10    1
    17     6    15    1
    18     6    32    1
    19     7     8    1
    20     7    33    1
    21     7    34    1
    22     8    35    1
    23     8    36    1
    24     9    20    1
    25     9    37    1
    26     9    38    1
    27    10    13    1
    28    10    20    2
    29    11    16    1
    30    11    39    1
    31    11    40    1
    32    12    13    1
    33    12    19    1
    34    12    23    1
    35    12    26    1
    36    13    24    1
    37    13    41    1
    38    14    21    1
    39    14    42    1
    40    14    43    1
    41    15    19    1
    42    15    44    1
    43    15    45    1
    44    16    21    1
    45    16    28    1
    46    16    29    1
    47    17    46    1
    48    17    47    1
    49    17    48    1
    50    18    49    1
    51    18    50    1
    52    18    51    1
    53    19    52    1
    54    19    53    1
    55    20    54    1
    56    21    55    1
    57    21    56    1
    58    22    57    1
    59    22    58    1
    60    22    59    1
    61    23    25    1
    62    23    30    1
    63    23    60    1
    64    24    27    1
    65    24    61    1
    66    24    62    1
    67    25    27    1
    68    25    63    1
    69    26    64    1
    70    26    65    1
    71    26    66    1
    72    27    67    1
    73    27    68    1
    74    28    72    1
    75    28    73    1
    76    28    74    1
    77    29    69    1
    78    29    70    1
    79    29    71    1
    80    30    75    1
    81    30    76    1
    82    30    77    1
