@<TRIPOS>MOLECULE
IMPHY014768
 74 78 0 0 0
SMALL
GASTEIGER

@<TRIPOS>ATOM
      1 O           7.4149   -1.5675    0.0000 O.3     1  UNL1       -0.4569
      2 O           5.6489   -2.6052    0.0000 O.3     1  UNL1       -0.4574
      3 O           2.0000   -1.5883    0.0000 O.2     1  UNL1       -0.2921
      4 O           8.6528    4.3373    0.0000 O.2     1  UNL1       -0.4708
      5 O           6.5662   -3.0774    0.0000 O.2     1  UNL1       -0.2512
      6 O           4.1522   -3.4770    0.0000 O.2     1  UNL1       -0.2512
      7 C           6.5271   -0.0360    0.0000 C.3     1  UNL1        0.0335
      8 C           5.6610    0.4640    0.0000 C.3     1  UNL1       -0.0191
      9 C           4.7510   -0.0428    0.0000 C.3     1  UNL1       -0.0028
     10 C           4.7430   -1.0844    0.0000 C.3     1  UNL1        0.0209
     11 C           7.3931    1.4640    0.0000 C.3     1  UNL1       -0.0033
     12 C           6.5431   -1.0775    0.0000 C.3     1  UNL1        0.1492
     13 C           7.3931    0.4640    0.0000 C.2     1  UNL1       -0.0571
     14 C           5.6451   -1.6053    0.0000 C.3     1  UNL1        0.1450
     15 C           5.6610    1.4640    0.0000 C.3     1  UNL1       -0.0477
     16 C           6.5271    1.9640    0.0000 C.3     1  UNL1       -0.0430
     17 C           3.8076   -1.6342    0.0000 C.3     1  UNL1        0.0345
     18 C           8.3393    1.7687    0.0000 C.3     1  UNL1       -0.0004
     19 C           7.3931   -0.5360    0.0000 C.3     1  UNL1       -0.0520
     20 C           4.7587    0.9571    0.0000 C.3     1  UNL1       -0.0554
     21 C           3.8242    0.5212    0.0000 C.2     1  UNL1       -0.0741
     22 C           8.3393    0.1593    0.0000 C.2     1  UNL1       -0.0830
     23 C           8.9229    0.9640    0.0000 C.3     1  UNL1       -0.0267
     24 C           7.3931    2.4640    0.0000 C.3     1  UNL1       -0.0553
     25 C           2.8680   -1.0917    0.0000 C.2     1  UNL1        0.1618
     26 C           2.8763   -0.0067    0.0000 C.2     1  UNL1       -0.0220
     27 C           3.3109   -2.5021    0.0000 C.3     1  UNL1       -0.0524
     28 C           4.3109   -2.4983    0.0000 C.3     1  UNL1       -0.0524
     29 C           8.6500    2.7193    0.0000 C.ar    1  UNL1       -0.0055
     30 C           7.4264   -2.5674    0.0000 C.2     1  UNL1        0.3043
     31 C           9.6016    3.0266    0.0000 C.ar    1  UNL1       -0.0204
     32 C           8.0636    3.5293    0.0000 C.ar    1  UNL1        0.0951
     33 C           5.1523   -3.4732    0.0000 C.2     1  UNL1        0.3043
     34 C           9.6033    4.0266    0.0000 C.ar    1  UNL1        0.0920
     35 C           8.2982   -3.0573    0.0000 C.3     1  UNL1        0.0332
     36 C           5.6556   -4.3373    0.0000 C.3     1  UNL1        0.0332
     37 H           6.3972    0.8890    0.0000 H       1  UNL1        0.0319
     38 H           4.7463   -1.9344    0.0000 H       1  UNL1        0.0356
     39 H           6.5491   -1.6975    0.0000 H       1  UNL1        0.0780
     40 H           5.1087   -1.9163    0.0000 H       1  UNL1        0.0775
     41 H           5.4490    2.0466    0.0000 H       1  UNL1        0.0269
     42 H           5.0504    1.3563    0.0000 H       1  UNL1        0.0269
     43 H           6.9256    2.4390    0.0000 H       1  UNL1        0.0274
     44 H           6.1285    2.4390    0.0000 H       1  UNL1        0.0274
     45 H           8.9518    1.8649    0.0000 H       1  UNL1        0.0361
     46 H           7.0831   -1.0729    0.0000 H       1  UNL1        0.0239
     47 H           7.9300   -0.8460    0.0000 H       1  UNL1        0.0239
     48 H           7.7031    0.0009    0.0000 H       1  UNL1        0.0239
     49 H           5.3787    0.9523    0.0000 H       1  UNL1        0.0238
     50 H           4.7635    1.5771    0.0000 H       1  UNL1        0.0238
     51 H           4.1388    0.9619    0.0000 H       1  UNL1        0.0238
     52 H           3.8361    1.1411    0.0000 H       1  UNL1        0.0579
     53 H           8.5319   -0.4301    0.0000 H       1  UNL1        0.0572
     54 H           9.3838    0.5493    0.0000 H       1  UNL1        0.0314
     55 H           9.3838    1.3787    0.0000 H       1  UNL1        0.0314
     56 H           8.0131    2.4640    0.0000 H       1  UNL1        0.0238
     57 H           7.3931    3.0840    0.0000 H       1  UNL1        0.0238
     58 H           6.7731    2.4640    0.0000 H       1  UNL1        0.0238
     59 H           2.3430    0.3095    0.0000 H       1  UNL1        0.0649
     60 H           2.7728   -2.1942    0.0000 H       1  UNL1        0.0239
     61 H           3.0030   -3.0402    0.0000 H       1  UNL1        0.0239
     62 H           3.8490   -2.8100    0.0000 H       1  UNL1        0.0239
     63 H           3.7752   -2.8103    0.0000 H       1  UNL1        0.0239
     64 H           4.6230   -3.0340    0.0000 H       1  UNL1        0.0239
     65 H           4.8466   -2.1862    0.0000 H       1  UNL1        0.0239
     66 H          10.1025    2.6613    0.0000 H       1  UNL1        0.0652
     67 H           7.4436    3.5304    0.0000 H       1  UNL1        0.1032
     68 H          10.1055    4.3902    0.0000 H       1  UNL1        0.1029
     69 H           7.9944   -3.5978    0.0000 H       1  UNL1        0.0342
     70 H           8.8387   -3.3611    0.0000 H       1  UNL1        0.0342
     71 H           8.6020   -2.5169    0.0000 H       1  UNL1        0.0342
     72 H           5.1199   -4.6494    0.0000 H       1  UNL1        0.0342
     73 H           5.9677   -4.8730    0.0000 H       1  UNL1        0.0342
     74 H           6.1914   -4.0252    0.0000 H       1  UNL1        0.0342
@<TRIPOS>BOND
     1    12     1    1
     2     1    30    1
     3    14     2    1
     4     2    33    1
     5     3    25    2
     6     4    32   ar
     7     4    34   ar
     8     5    30    2
     9     6    33    2
    10     7     8    1
    11     7    12    1
    12     7    13    1
    13     7    19    1
    14     8     9    1
    15     8    15    1
    16     8    37    1
    17     9    10    1
    18     9    20    1
    19     9    21    1
    20    10    14    1
    21    10    17    1
    22    10    38    1
    23    11    13    1
    24    11    16    1
    25    11    18    1
    26    11    24    1
    27    12    14    1
    28    12    39    1
    29    13    22    2
    30    14    40    1
    31    15    16    1
    32    15    41    1
    33    15    42    1
    34    16    43    1
    35    16    44    1
    36    17    25    1
    37    17    27    1
    38    17    28    1
    39    18    23    1
    40    18    29    1
    41    18    45    1
    42    19    46    1
    43    19    47    1
    44    19    48    1
    45    20    49    1
    46    20    50    1
    47    20    51    1
    48    21    26    2
    49    21    52    1
    50    22    23    1
    51    22    53    1
    52    23    54    1
    53    23    55    1
    54    24    56    1
    55    24    57    1
    56    24    58    1
    57    25    26    1
    58    26    59    1
    59    27    60    1
    60    27    61    1
    61    27    62    1
    62    28    63    1
    63    28    64    1
    64    28    65    1
    65    29    31   ar
    66    29    32   ar
    67    30    35    1
    68    31    34   ar
    69    31    66    1
    70    32    67    1
    71    33    36    1
    72    34    68    1
    73    35    69    1
    74    35    70    1
    75    35    71    1
    76    36    72    1
    77    36    73    1
    78    36    74    1
