@<TRIPOS>MOLECULE
IMPHY012738
 39 40 0 0 0
SMALL
GASTEIGER

@<TRIPOS>ATOM
      1 C           4.0835   -1.7134    0.0000 C.3     1  UNL1       -0.0310
      2 C           4.4245   -0.7645    0.0000 C.3     1  UNL1       -0.0291
      3 C           3.4848   -0.4225    0.0000 C.3     1  UNL1       -0.0163
      4 C           3.1361   -1.3685    0.0000 C.3     1  UNL1       -0.0408
      5 C           5.3642   -0.4225    0.0000 C.3     1  UNL1       -0.0455
      6 C           3.7434   -2.6538    0.0000 C.3     1  UNL1       -0.0595
      7 C           5.0239   -2.0535    0.0000 C.3     1  UNL1       -0.0595
      8 C           2.9848    0.4436    0.0000 C.2     1  UNL1       -0.0729
      9 C           5.8642    0.4436    0.0000 C.3     1  UNL1       -0.0317
     10 C           3.1585    1.4284    0.0000 C.3     1  UNL1       -0.0283
     11 C           5.6905    1.4284    0.0000 C.2     1  UNL1       -0.0765
     12 C           3.9245    2.0712    0.0000 C.3     1  UNL1       -0.0308
     13 C           2.0000    0.2699    0.0000 C.2     1  UNL1       -0.0992
     14 C           4.9245    2.0712    0.0000 C.2     1  UNL1       -0.0847
     15 C           6.5566    1.9284    0.0000 C.3     1  UNL1       -0.0438
     16 H           5.0268   -1.3643    0.0000 H       1  UNL1        0.0312
     17 H           2.6379   -0.4948    0.0000 H       1  UNL1        0.0349
     18 H           2.5540   -1.1549    0.0000 H       1  UNL1        0.0276
     19 H           2.9232   -1.9508    0.0000 H       1  UNL1        0.0276
     20 H           5.4002   -1.0414    0.0000 H       1  UNL1        0.0271
     21 H           5.9675   -0.5654    0.0000 H       1  UNL1        0.0271
     22 H           3.1604   -2.4429    0.0000 H       1  UNL1        0.0235
     23 H           3.5326   -3.2368    0.0000 H       1  UNL1        0.0235
     24 H           4.3265   -2.8646    0.0000 H       1  UNL1        0.0235
     25 H           4.8131   -2.6365    0.0000 H       1  UNL1        0.0235
     26 H           5.6070   -2.2643    0.0000 H       1  UNL1        0.0235
     27 H           5.2348   -1.4704    0.0000 H       1  UNL1        0.0235
     28 H           6.2897   -0.0074    0.0000 H       1  UNL1        0.0310
     29 H           6.4182    0.7218    0.0000 H       1  UNL1        0.0310
     30 H           2.9129    1.9977    0.0000 H       1  UNL1        0.0313
     31 H           2.5426    1.3564    0.0000 H       1  UNL1        0.0313
     32 H           4.1023    2.6651    0.0000 H       1  UNL1        0.0310
     33 H           3.4065    2.4118    0.0000 H       1  UNL1        0.0310
     34 H           1.6015    0.7449    0.0000 H       1  UNL1        0.0534
     35 H           1.7880   -0.3127    0.0000 H       1  UNL1        0.0534
     36 H           5.1366    2.6538    0.0000 H       1  UNL1        0.0572
     37 H           6.8666    1.3914    0.0000 H       1  UNL1        0.0274
     38 H           7.0935    2.2384    0.0000 H       1  UNL1        0.0274
     39 H           6.2466    2.4653    0.0000 H       1  UNL1        0.0274
@<TRIPOS>BOND
     1     1     2    1
     2     1     4    1
     3     1     6    1
     4     1     7    1
     5     2     3    1
     6     2     5    1
     7     2    16    1
     8     3     4    1
     9     3     8    1
    10     3    17    1
    11     4    18    1
    12     4    19    1
    13     5     9    1
    14     5    20    1
    15     5    21    1
    16     6    22    1
    17     6    23    1
    18     6    24    1
    19     7    25    1
    20     7    26    1
    21     7    27    1
    22     8    10    1
    23     8    13    2
    24     9    11    1
    25     9    28    1
    26     9    29    1
    27    10    12    1
    28    10    30    1
    29    10    31    1
    30    11    14    2
    31    11    15    1
    32    12    14    1
    33    12    32    1
    34    12    33    1
    35    13    34    1
    36    13    35    1
    37    14    36    1
    38    15    37    1
    39    15    38    1
    40    15    39    1
