@<TRIPOS>MOLECULE
IMPHY005230
 54 56 0 0 0
SMALL
GASTEIGER

@<TRIPOS>ATOM
      1 O           2.5369    0.3430    0.0000 O.3     1  UNL1       -0.3917
      2 O           2.7690    3.2091    0.0000 O.3     1  UNL1       -0.3945
      3 O           7.3482   -3.7460    0.0000 O.3     1  UNL1       -0.4572
      4 O           8.6228   -2.5006    0.0000 O.2     1  UNL1       -0.2453
      5 C           5.1350    0.8430    0.0000 C.3     1  UNL1       -0.0198
      6 C           5.1350    1.8430    0.0000 C.3     1  UNL1       -0.0272
      7 C           4.2690    2.3430    0.0000 C.3     1  UNL1       -0.0033
      8 C           6.0290    0.3084    0.0000 C.3     1  UNL1       -0.0141
      9 C           4.2690    0.3430    0.0000 C.3     1  UNL1       -0.0206
     10 C           6.0290    2.3777    0.0000 C.3     1  UNL1       -0.0454
     11 C           3.4030    1.8430    0.0000 C.3     1  UNL1       -0.0191
     12 C           3.4030    0.8430    0.0000 C.3     1  UNL1        0.0564
     13 C           5.1350   -0.1570    0.0000 C.3     1  UNL1       -0.0587
     14 C           6.9350    1.8638    0.0000 C.3     1  UNL1       -0.0314
     15 C           6.9350    0.8222    0.0000 C.2     1  UNL1       -0.0730
     16 C           3.7690    3.2091    0.0000 C.3     1  UNL1        0.0499
     17 C           6.0174   -0.6916    0.0000 C.3     1  UNL1       -0.0418
     18 C           4.7690    3.2091    0.0000 C.3     1  UNL1       -0.0571
     19 C           6.8776   -1.2015    0.0000 C.3     1  UNL1       -0.0206
     20 C           7.7991    0.3189    0.0000 C.2     1  UNL1       -0.0992
     21 C           6.8660   -2.2015    0.0000 C.2     1  UNL1        0.0359
     22 C           6.0502   -2.7799    0.0000 C.2     1  UNL1       -0.0371
     23 C           7.6682   -2.7986    0.0000 C.2     1  UNL1        0.3352
     24 C           6.3482   -3.7344    0.0000 C.3     1  UNL1        0.1118
     25 H           5.1285    2.6930    0.0000 H       1  UNL1        0.0312
     26 H           6.5629   -0.0068    0.0000 H       1  UNL1        0.0351
     27 H           3.8705   -0.1319    0.0000 H       1  UNL1        0.0296
     28 H           4.6675   -0.1319    0.0000 H       1  UNL1        0.0296
     29 H           6.4226    2.8567    0.0000 H       1  UNL1        0.0271
     30 H           5.6244    2.8475    0.0000 H       1  UNL1        0.0271
     31 H           3.1909    2.4256    0.0000 H       1  UNL1        0.0296
     32 H           2.7924    1.7354    0.0000 H       1  UNL1        0.0296
     33 H           3.4030    0.2230    0.0000 H       1  UNL1        0.0593
     34 H           4.5150   -0.1570    0.0000 H       1  UNL1        0.0235
     35 H           5.1350   -0.7770    0.0000 H       1  UNL1        0.0235
     36 H           5.7550   -0.1570    0.0000 H       1  UNL1        0.0235
     37 H           7.5459    1.7578    0.0000 H       1  UNL1        0.0310
     38 H           7.1441    2.4475    0.0000 H       1  UNL1        0.0310
     39 H           4.3516    3.4211    0.0000 H       1  UNL1        0.0563
     40 H           3.6613    3.8196    0.0000 H       1  UNL1        0.0563
     41 H           5.4081   -0.5768    0.0000 H       1  UNL1        0.0274
     42 H           5.7986   -1.2717    0.0000 H       1  UNL1        0.0274
     43 H           5.3059    2.8991    0.0000 H       1  UNL1        0.0236
     44 H           5.0790    3.7460    0.0000 H       1  UNL1        0.0236
     45 H           4.2320    3.5191    0.0000 H       1  UNL1        0.0236
     46 H           7.4869   -1.3163    0.0000 H       1  UNL1        0.0315
     47 H           7.0964   -0.6214    0.0000 H       1  UNL1        0.0315
     48 H           2.0000    0.6530    0.0000 H       1  UNL1        0.2098
     49 H           7.7967   -0.3011    0.0000 H       1  UNL1        0.0534
     50 H           8.3372    0.6268    0.0000 H       1  UNL1        0.0534
     51 H           2.4590    3.7460    0.0000 H       1  UNL1        0.2094
     52 H           5.4629   -2.5815    0.0000 H       1  UNL1        0.0610
     53 H           5.7404   -3.8563    0.0000 H       1  UNL1        0.0743
     54 H           6.4059   -4.3517    0.0000 H       1  UNL1        0.0743
@<TRIPOS>BOND
     1    12     1    1
     2     1    48    1
     3     2    16    1
     4     2    51    1
     5     3    23    1
     6     3    24    1
     7     4    23    2
     8     5     6    1
     9     5     8    1
    10     5     9    1
    11     5    13    1
    12     6     7    1
    13     6    10    1
    14     6    25    1
    15     7    11    1
    16     7    16    1
    17     7    18    1
    18     8    15    1
    19     8    17    1
    20     8    26    1
    21     9    12    1
    22     9    27    1
    23     9    28    1
    24    10    14    1
    25    10    29    1
    26    10    30    1
    27    11    12    1
    28    11    31    1
    29    11    32    1
    30    12    33    1
    31    13    34    1
    32    13    35    1
    33    13    36    1
    34    14    15    1
    35    14    37    1
    36    14    38    1
    37    15    20    2
    38    16    39    1
    39    16    40    1
    40    17    19    1
    41    17    41    1
    42    17    42    1
    43    18    43    1
    44    18    44    1
    45    18    45    1
    46    19    21    1
    47    19    46    1
    48    19    47    1
    49    20    49    1
    50    20    50    1
    51    21    22    2
    52    21    23    1
    53    22    24    1
    54    22    52    1
    55    24    53    1
    56    24    54    1
