@<TRIPOS>MOLECULE
IMPHY016643
 31 30 0 0 0
SMALL
GASTEIGER

@<TRIPOS>ATOM
      1 O           3.7320    0.2500    0.0000 O.3     1  UNL1       -0.4556
      2 O           4.5981   -1.2500    0.0000 O.2     1  UNL1       -0.2350
      3 C           8.9282    1.2500    0.0000 C.3     1  UNL1       -0.0522
      4 C           9.7942    0.7500    0.0000 C.3     1  UNL1       -0.0533
      5 C           8.0622    0.7500    0.0000 C.3     1  UNL1       -0.0422
      6 C          10.6603    1.2500    0.0000 C.3     1  UNL1       -0.0559
      7 C           7.1962    1.2500    0.0000 C.3     1  UNL1        0.0097
      8 C          11.5263    0.7500    0.0000 C.3     1  UNL1       -0.0653
      9 C           6.3301    0.7500    0.0000 C.1     1  UNL1       -0.0907
     10 C           5.4641    0.2500    0.0000 C.1     1  UNL1        0.0156
     11 C           2.8660   -0.2500    0.0000 C.3     1  UNL1        0.0906
     12 C           4.5981   -0.2500    0.0000 C.2     1  UNL1        0.3852
     13 C           2.0000    0.2500    0.0000 C.3     1  UNL1       -0.0306
     14 H           9.3267    1.7250    0.0000 H       1  UNL1        0.0266
     15 H           8.5297    1.7250    0.0000 H       1  UNL1        0.0266
     16 H           9.3957    0.2751    0.0000 H       1  UNL1        0.0265
     17 H          10.1928    0.2751    0.0000 H       1  UNL1        0.0265
     18 H           7.6636    0.2751    0.0000 H       1  UNL1        0.0274
     19 H           8.4607    0.2751    0.0000 H       1  UNL1        0.0274
     20 H          11.0588    1.7250    0.0000 H       1  UNL1        0.0263
     21 H          10.2617    1.7250    0.0000 H       1  UNL1        0.0263
     22 H           7.5947    1.7250    0.0000 H       1  UNL1        0.0397
     23 H           6.7976    1.7250    0.0000 H       1  UNL1        0.0397
     24 H          11.2163    0.2131    0.0000 H       1  UNL1        0.0230
     25 H          12.0632    0.4400    0.0000 H       1  UNL1        0.0230
     26 H          11.8363    1.2869    0.0000 H       1  UNL1        0.0230
     27 H           2.4675   -0.7249    0.0000 H       1  UNL1        0.0695
     28 H           3.2646   -0.7249    0.0000 H       1  UNL1        0.0695
     29 H           2.3100    0.7869    0.0000 H       1  UNL1        0.0262
     30 H           1.4631    0.5600    0.0000 H       1  UNL1        0.0262
     31 H           1.6900   -0.2869    0.0000 H       1  UNL1        0.0262
@<TRIPOS>BOND
     1     1    11    1
     2     1    12    1
     3     2    12    2
     4     3     4    1
     5     3     5    1
     6     3    14    1
     7     3    15    1
     8     4     6    1
     9     4    16    1
    10     4    17    1
    11     5     7    1
    12     5    18    1
    13     5    19    1
    14     6     8    1
    15     6    20    1
    16     6    21    1
    17     7     9    1
    18     7    22    1
    19     7    23    1
    20     8    24    1
    21     8    25    1
    22     8    26    1
    23     9    10    3
    24    10    12    1
    25    11    13    1
    26    11    27    1
    27    11    28    1
    28    13    29    1
    29    13    30    1
    30    13    31    1
