@<TRIPOS>MOLECULE
IMPHY016641
 21 21 0 0 0
SMALL
GASTEIGER

@<TRIPOS>ATOM
      1 O           2.8940    1.5194    0.0000 O.2     1  UNL1       -0.2927
      2 C           4.2601   -1.5194    0.0000 C.3     1  UNL1       -0.0453
      3 C           3.2601   -1.5194    0.0000 C.3     1  UNL1       -0.0311
      4 C           4.5691   -0.5684    0.0000 C.3     1  UNL1       -0.0242
      5 C           2.9511   -0.5684    0.0000 C.2     1  UNL1       -0.0662
      6 C           3.7601    0.0194    0.0000 C.2     1  UNL1       -0.0063
      7 C           2.0000   -0.2593    0.0000 C.3     1  UNL1       -0.0431
      8 C           3.7601    1.0194    0.0000 C.2     1  UNL1        0.1561
      9 C           4.6261    1.5194    0.0000 C.3     1  UNL1       -0.0017
     10 H           4.1953   -2.1360    0.0000 H       1  UNL1        0.0271
     11 H           4.8665   -1.6483    0.0000 H       1  UNL1        0.0271
     12 H           2.6536   -1.6483    0.0000 H       1  UNL1        0.0310
     13 H           3.3249   -2.1360    0.0000 H       1  UNL1        0.0310
     14 H           5.1355   -0.8205    0.0000 H       1  UNL1        0.0314
     15 H           4.8791   -0.0314    0.0000 H       1  UNL1        0.0314
     16 H           2.1916    0.3303    0.0000 H       1  UNL1        0.0275
     17 H           1.4103   -0.0678    0.0000 H       1  UNL1        0.0275
     18 H           1.8084   -0.8490    0.0000 H       1  UNL1        0.0275
     19 H           4.9361    0.9825    0.0000 H       1  UNL1        0.0309
     20 H           5.1630    1.8294    0.0000 H       1  UNL1        0.0309
     21 H           4.3161    2.0564    0.0000 H       1  UNL1        0.0309
@<TRIPOS>BOND
     1     1     8    2
     2     2     3    1
     3     2     4    1
     4     2    10    1
     5     2    11    1
     6     3     5    1
     7     3    12    1
     8     3    13    1
     9     4     6    1
    10     4    14    1
    11     4    15    1
    12     5     6    2
    13     5     7    1
    14     6     8    1
    15     7    16    1
    16     7    17    1
    17     7    18    1
    18     8     9    1
    19     9    19    1
    20     9    20    1
    21     9    21    1
