@<TRIPOS>MOLECULE
IMPHY003251
 56 62 0 0 0
SMALL
GASTEIGER

@<TRIPOS>ATOM
      1 O           8.6073    1.6297    0.0000 O.3     1  UNL1       -0.3735
      2 O           8.5342   -2.0918    0.0000 O.3     1  UNL1       -0.3717
      3 O           5.2671   -2.1297    0.0000 O.2     1  UNL1       -0.2752
      4 O           2.8660    1.1808    0.0000 O.3     1  UNL1       -0.4914
      5 O           2.8660   -0.7434    0.0000 O.3     1  UNL1       -0.4914
      6 N           7.5417    2.0468    0.0000 N.3     1  UNL1       -0.2704
      7 N           6.1331   -0.7055    0.0000 N.am    1  UNL1       -0.2665
      8 C           6.9335    0.6808    0.0000 C.3     1  UNL1        0.0604
      9 C           7.7339    1.1428    0.0000 C.3     1  UNL1        0.1322
     10 C           6.9335   -0.2434    0.0000 C.3     1  UNL1        0.0504
     11 C           7.7339   -0.7055    0.0000 C.3     1  UNL1        0.0124
     12 C           8.5342   -0.2434    0.0000 C.3     1  UNL1       -0.0078
     13 C           8.5342    0.6808    0.0000 C.3     1  UNL1       -0.0022
     14 C           6.2467    1.2992    0.0000 C.3     1  UNL1       -0.0247
     15 C           5.3328    0.6808    0.0000 C.ar    1  UNL1       -0.0102
     16 C           6.6226    2.1434    0.0000 C.3     1  UNL1        0.0028
     17 C           7.7339   -1.6297    0.0000 C.3     1  UNL1        0.0724
     18 C           9.3945   -0.5811    0.0000 C.2     1  UNL1       -0.0537
     19 C           9.3587    1.2455    0.0000 C.3     1  UNL1        0.0229
     20 C           5.3328   -0.2434    0.0000 C.ar    1  UNL1        0.0442
     21 C           6.9335   -2.0918    0.0000 C.3     1  UNL1        0.0511
     22 C           6.1331   -1.6297    0.0000 C.2     1  UNL1        0.2225
     23 C           4.5324    1.1428    0.0000 C.ar    1  UNL1       -0.0106
     24 C           9.7078   -1.2189    0.0000 C.2     1  UNL1       -0.0579
     25 C           9.2560   -2.0815    0.0000 C.3     1  UNL1        0.0665
     26 C           4.5324   -0.7055    0.0000 C.ar    1  UNL1        0.0054
     27 C           3.7320    0.6808    0.0000 C.ar    1  UNL1        0.1619
     28 C           3.7320   -0.2434    0.0000 C.ar    1  UNL1        0.1633
     29 C           2.8660    2.1808    0.0000 C.3     1  UNL1        0.0790
     30 C           2.0000   -0.2434    0.0000 C.3     1  UNL1        0.0790
     31 H           6.9361   -1.0934    0.0000 H       1  UNL1        0.0518
     32 H           8.4700   -1.1305    0.0000 H       1  UNL1        0.0350
     33 H           9.2365    0.2354    0.0000 H       1  UNL1        0.0351
     34 H           9.1448    0.5731    0.0000 H       1  UNL1        0.0312
     35 H           8.7463    1.2634    0.0000 H       1  UNL1        0.0312
     36 H           5.7098    1.6092    0.0000 H       1  UNL1        0.0288
     37 H           5.8823    0.7976    0.0000 H       1  UNL1        0.0288
     38 H           6.7515    2.7499    0.0000 H       1  UNL1        0.0428
     39 H           6.0329    2.3350    0.0000 H       1  UNL1        0.0428
     40 H           7.7265   -2.4797    0.0000 H       1  UNL1        0.0604
     41 H           9.9738    1.1680    0.0000 H       1  UNL1        0.0473
     42 H           9.5243    1.8430    0.0000 H       1  UNL1        0.0473
     43 H           6.5350   -2.5667    0.0000 H       1  UNL1        0.0384
     44 H           7.3320   -2.5667    0.0000 H       1  UNL1        0.0384
     45 H           8.6167    2.2497    0.0000 H       1  UNL1        0.2118
     46 H           4.5324    1.7628    0.0000 H       1  UNL1        0.0659
     47 H          10.3278   -1.2270    0.0000 H       1  UNL1        0.0595
     48 H           9.1625   -2.6944    0.0000 H       1  UNL1        0.0604
     49 H           9.8451   -2.2747    0.0000 H       1  UNL1        0.0604
     50 H           4.5324   -1.3255    0.0000 H       1  UNL1        0.0674
     51 H           3.4860    2.1808    0.0000 H       1  UNL1        0.0660
     52 H           2.8660    2.8008    0.0000 H       1  UNL1        0.0660
     53 H           2.2460    2.1808    0.0000 H       1  UNL1        0.0660
     54 H           2.3100    0.2935    0.0000 H       1  UNL1        0.0660
     55 H           1.4631    0.0666    0.0000 H       1  UNL1        0.0660
     56 H           1.6900   -0.7804    0.0000 H       1  UNL1        0.0660
@<TRIPOS>BOND
     1     9     1    1
     2     1    45    1
     3     2    17    1
     4     2    25    1
     5     3    22    2
     6     4    27    1
     7     4    29    1
     8     5    28    1
     9     5    30    1
    10     6     9    1
    11     6    16    1
    12     6    19    1
    13     7    10    1
    14     7    20    1
    15     7    22   am
    16     8     9    1
    17     8    10    1
    18     8    14    1
    19     8    15    1
    20     9    13    1
    21    10    11    1
    22    10    31    1
    23    11    12    1
    24    11    17    1
    25    11    32    1
    26    12    13    1
    27    12    18    1
    28    12    33    1
    29    13    34    1
    30    13    35    1
    31    14    16    1
    32    14    36    1
    33    14    37    1
    34    15    20   ar
    35    15    23   ar
    36    16    38    1
    37    16    39    1
    38    17    21    1
    39    17    40    1
    40    18    19    1
    41    18    24    2
    42    19    41    1
    43    19    42    1
    44    20    26   ar
    45    21    22    1
    46    21    43    1
    47    21    44    1
    48    23    27   ar
    49    23    46    1
    50    24    25    1
    51    24    47    1
    52    25    48    1
    53    25    49    1
    54    26    28   ar
    55    26    50    1
    56    27    28   ar
    57    29    51    1
    58    29    52    1
    59    29    53    1
    60    30    54    1
    61    30    55    1
    62    30    56    1
