@<TRIPOS>MOLECULE
IMPHY014563
 42 44 0 0 0
SMALL
GASTEIGER

@<TRIPOS>ATOM
      1 O           6.4967    1.9986    0.0000 O.3     1  UNL1       -0.3885
      2 O           2.4079    1.2132    0.0000 O.3     1  UNL1       -0.4802
      3 O           3.7123    2.3528    0.0000 O.2     1  UNL1       -0.2504
      4 C           5.1705   -0.7554    0.0000 C.3     1  UNL1       -0.0224
      5 C           4.2695   -0.3215    0.0000 C.3     1  UNL1       -0.0193
      6 C           4.6705    1.4352    0.0000 C.3     1  UNL1        0.0039
      7 C           4.0470    0.6534    0.0000 C.3     1  UNL1        0.0735
      8 C           5.2774    0.4214    0.0000 C.3     1  UNL1       -0.0404
      9 C           5.0345   -1.7401    0.0000 C.3     1  UNL1       -0.0379
     10 C           6.0715   -0.3215    0.0000 C.3     1  UNL1       -0.0442
     11 C           5.6705    1.4352    0.0000 C.3     1  UNL1        0.0672
     12 C           3.5844   -1.0418    0.0000 C.3     1  UNL1       -0.0484
     13 C           4.0562   -1.9168    0.0000 C.3     1  UNL1       -0.0497
     14 C           6.2940    0.6534    0.0000 C.3     1  UNL1       -0.0235
     15 C           3.1275    0.2604    0.0000 C.3     1  UNL1       -0.0488
     16 C           3.3891    1.4065    0.0000 C.2     1  UNL1        0.3113
     17 C           5.7561   -2.4324    0.0000 C.3     1  UNL1       -0.0619
     18 C           5.5958    2.4324    0.0000 C.3     1  UNL1       -0.0358
     19 H           3.5037    0.0473    0.0000 H       1  UNL1        0.0317
     20 H           4.4814    2.2639    0.0000 H       1  UNL1        0.0339
     21 H           5.8474    0.1775    0.0000 H       1  UNL1        0.0275
     22 H           5.6852    0.8884    0.0000 H       1  UNL1        0.0275
     23 H           5.6202   -1.5366    0.0000 H       1  UNL1        0.0304
     24 H           6.2094   -0.9260    0.0000 H       1  UNL1        0.0272
     25 H           6.6915   -0.3215    0.0000 H       1  UNL1        0.0272
     26 H           3.1826   -0.5697    0.0000 H       1  UNL1        0.0268
     27 H           3.0727   -1.3918    0.0000 H       1  UNL1        0.0268
     28 H           3.4826   -2.1521    0.0000 H       1  UNL1        0.0268
     29 H           4.2299   -2.5120    0.0000 H       1  UNL1        0.0268
     30 H           6.8526    0.3844    0.0000 H       1  UNL1        0.0293
     31 H           6.6806    1.1382    0.0000 H       1  UNL1        0.0293
     32 H           2.8838    0.8305    0.0000 H       1  UNL1        0.0240
     33 H           2.5574    0.0167    0.0000 H       1  UNL1        0.0240
     34 H           3.3712   -0.3097    0.0000 H       1  UNL1        0.0240
     35 H           5.3269   -2.8798    0.0000 H       1  UNL1        0.0233
     36 H           6.2035   -2.8617    0.0000 H       1  UNL1        0.0233
     37 H           6.1853   -1.9851    0.0000 H       1  UNL1        0.0233
     38 H           6.2140    2.4788    0.0000 H       1  UNL1        0.0257
     39 H           5.5494    3.0507    0.0000 H       1  UNL1        0.0257
     40 H           4.9775    2.3861    0.0000 H       1  UNL1        0.0257
     41 H           7.0553    1.7296    0.0000 H       1  UNL1        0.2102
     42 H           2.0000    1.6801    0.0000 H       1  UNL1        0.2951
@<TRIPOS>BOND
     1    11     1    1
     2     1    41    1
     3     2    16    1
     4     2    42    1
     5     3    16    2
     6     4     5    1
     7     4     8    1
     8     4     9    1
     9     4    10    1
    10     5     7    1
    11     5    12    1
    12     5    19    1
    13     6     7    1
    14     6     8    1
    15     6    11    1
    16     6    20    1
    17     7    15    1
    18     7    16    1
    19     8    21    1
    20     8    22    1
    21     9    13    1
    22     9    17    1
    23     9    23    1
    24    10    14    1
    25    10    24    1
    26    10    25    1
    27    11    14    1
    28    11    18    1
    29    12    13    1
    30    12    26    1
    31    12    27    1
    32    13    28    1
    33    13    29    1
    34    14    30    1
    35    14    31    1
    36    15    32    1
    37    15    33    1
    38    15    34    1
    39    17    35    1
    40    17    36    1
    41    17    37    1
    42    18    38    1
    43    18    39    1
    44    18    40    1
