@<TRIPOS>MOLECULE
IMPHY006100
 61 64 0 0 0
SMALL
GASTEIGER

@<TRIPOS>ATOM
      1 O           5.1350   -2.7873    0.0000 O.3     1  UNL1       -0.3313
      2 O           6.8671   -2.7873    0.0000 O.3     1  UNL1       -0.4606
      3 O           5.1350   -5.7873    0.0000 O.3     1  UNL1       -0.3864
      4 O           3.4030   -4.7873    0.0000 O.3     1  UNL1       -0.3865
      5 O           6.8671   -4.7873    0.0000 O.3     1  UNL1       -0.3829
      6 O           2.5369   -3.2873    0.0000 O.3     1  UNL1       -0.3924
      7 O           8.6230    0.2752    0.0000 O.2     1  UNL1       -0.4549
      8 O           5.1208    0.2919    0.0000 O.3     1  UNL1       -0.5058
      9 O           7.7666    2.7786    0.0000 O.3     1  UNL1       -0.4181
     10 O           6.0308    1.7852    0.0000 O.2     1  UNL1       -0.2830
     11 O          12.0987    3.2619    0.0000 O.2     1  UNL1       -0.5071
     12 O           6.0346    2.7852    0.0000 O.2     1  UNL1       -0.2498
     13 O           6.0462    5.7852    0.0000 O.3     1  UNL1       -0.4802
     14 O           5.1744    4.2886    0.0000 O.2     1  UNL1       -0.2504
     15 C           5.1350   -4.7873    0.0000 C.3     1  UNL1        0.1152
     16 C           4.2690   -4.2873    0.0000 C.3     1  UNL1        0.1120
     17 C           6.0010   -4.2873    0.0000 C.3     1  UNL1        0.1454
     18 C           4.2690   -3.2873    0.0000 C.3     1  UNL1        0.1140
     19 C           6.0010   -3.2873    0.0000 C.3     1  UNL1        0.2308
     20 C           3.4030   -2.7873    0.0000 C.3     1  UNL1        0.0731
     21 C           6.8671   -1.7873    0.0000 C.ar    1  UNL1        0.1310
     22 C           7.7671   -1.2630    0.0000 C.ar    1  UNL1        0.0234
     23 C           5.9670   -1.2630    0.0000 C.ar    1  UNL1        0.0226
     24 C           7.7551   -0.2214    0.0000 C.ar    1  UNL1        0.1461
     25 C           6.8910    0.2819    0.0000 C.ar    1  UNL1        0.1092
     26 C           5.9790   -0.2214    0.0000 C.ar    1  UNL1        0.1348
     27 C           8.6269    1.2752    0.0000 C.ar    1  UNL1        0.1589
     28 C           9.4948    1.7719    0.0000 C.3     1  UNL1        0.0463
     29 C           6.8948    1.2819    0.0000 C.ar    1  UNL1        0.2384
     30 C           7.7628    1.7786    0.0000 C.ar    1  UNL1        0.2172
     31 C          10.3589    1.2686    0.0000 C.3     1  UNL1        0.0014
     32 C           9.4987    2.7719    0.0000 C.2     1  UNL1       -0.0695
     33 C          11.2269    1.7652    0.0000 C.2     1  UNL1       -0.0378
     34 C          10.3666    3.2685    0.0000 C.2     1  UNL1       -0.0237
     35 C          11.2307    2.7652    0.0000 C.2     1  UNL1        0.1130
     36 C           6.9026    3.2819    0.0000 C.2     1  UNL1        0.3234
     37 C           6.9064    4.2819    0.0000 C.3     1  UNL1        0.1422
     38 C           6.0423    4.7852    0.0000 C.2     1  UNL1        0.3156
     39 H           5.6720   -5.0973    0.0000 H       1  UNL1        0.0648
     40 H           4.2690   -4.9073    0.0000 H       1  UNL1        0.0647
     41 H           6.5380   -3.9773    0.0000 H       1  UNL1        0.0683
     42 H           4.2690   -2.6673    0.0000 H       1  UNL1        0.0647
     43 H           6.0010   -2.6673    0.0000 H       1  UNL1        0.1084
     44 H           3.8015   -2.3123    0.0000 H       1  UNL1        0.0584
     45 H           3.0044   -2.3123    0.0000 H       1  UNL1        0.0584
     46 H           4.5981   -6.0973    0.0000 H       1  UNL1        0.2100
     47 H           3.4030   -5.4073    0.0000 H       1  UNL1        0.2100
     48 H           6.8671   -5.4073    0.0000 H       1  UNL1        0.2102
     49 H           2.0000   -2.9773    0.0000 H       1  UNL1        0.2095
     50 H           8.3064   -1.5688    0.0000 H       1  UNL1        0.0691
     51 H           5.4277   -1.5688    0.0000 H       1  UNL1        0.0691
     52 H           9.4924    1.1519    0.0000 H       1  UNL1        0.0429
     53 H          10.3565    0.6486    0.0000 H       1  UNL1        0.0360
     54 H           8.9630    3.0839    0.0000 H       1  UNL1        0.0580
     55 H          11.7626    1.4531    0.0000 H       1  UNL1        0.0611
     56 H          10.3690    3.8885    0.0000 H       1  UNL1        0.0651
     57 H           4.5792   -0.0098    0.0000 H       1  UNL1        0.2922
     58 H           7.5166    4.1719    0.0000 H       1  UNL1        0.0493
     59 H           7.1207    4.8637    0.0000 H       1  UNL1        0.0493
     60 H          12.6344    2.9498    0.0000 H       1  UNL1        0.2921
     61 H           5.5104    6.0973    0.0000 H       1  UNL1        0.2951
@<TRIPOS>BOND
     1     1    18    1
     2     1    19    1
     3    19     2    1
     4     2    21    1
     5    15     3    1
     6     3    46    1
     7    16     4    1
     8     4    47    1
     9    17     5    1
    10     5    48    1
    11     6    20    1
    12     6    49    1
    13     7    24   ar
    14     7    27   ar
    15     8    26    1
    16     8    57    1
    17     9    30    1
    18     9    36    1
    19    10    29    2
    20    11    35    1
    21    11    60    1
    22    12    36    2
    23    13    38    1
    24    13    61    1
    25    14    38    2
    26    15    16    1
    27    15    17    1
    28    15    39    1
    29    16    18    1
    30    16    40    1
    31    17    19    1
    32    17    41    1
    33    18    20    1
    34    18    42    1
    35    19    43    1
    36    20    44    1
    37    20    45    1
    38    21    22   ar
    39    21    23   ar
    40    22    24   ar
    41    22    50    1
    42    23    26   ar
    43    23    51    1
    44    24    25   ar
    45    25    26   ar
    46    25    29   ar
    47    27    28    1
    48    27    30   ar
    49    28    31    1
    50    28    32    1
    51    28    52    1
    52    29    30   ar
    53    31    33    1
    54    31    53    1
    55    32    34    2
    56    32    54    1
    57    33    35    2
    58    33    55    1
    59    34    35    1
    60    34    56    1
    61    36    37    1
    62    37    38    1
    63    37    58    1
    64    37    59    1
