@<TRIPOS>MOLECULE
IMPHY002483
 91 96 0 0 0
SMALL
GASTEIGER

@<TRIPOS>ATOM
      1 O           8.5991   -1.1662    0.0000 O.3     1  UNL1       -0.4574
      2 O          13.6616    2.9659    0.0000 O.2     1  UNL1       -0.2918
      3 O           7.7331   -2.6662    0.0000 O.2     1  UNL1       -0.2452
      4 O           6.0010   -2.6662    0.0000 O.3     1  UNL1       -0.3438
      5 O           4.2690   -2.6662    0.0000 O.3     1  UNL1       -0.3405
      6 O           6.0010   -4.6662    0.0000 O.3     1  UNL1       -0.3841
      7 O           4.2690   -5.6662    0.0000 O.3     1  UNL1       -0.3864
      8 O           2.5369   -4.6662    0.0000 O.3     1  UNL1       -0.3865
      9 O           2.5369   -1.6662    0.0000 O.3     1  UNL1       -0.3924
     10 C          10.2699    1.9174    0.0000 C.3     1  UNL1       -0.0258
     11 C           9.9592    2.8680    0.0000 C.3     1  UNL1       -0.0320
     12 C          10.6271    3.6122    0.0000 C.3     1  UNL1       -0.0302
     13 C           9.4651    1.3338    0.0000 C.3     1  UNL1       -0.0294
     14 C          11.6056    3.4060    0.0000 C.3     1  UNL1       -0.0215
     15 C          11.2484    1.7112    0.0000 C.3     1  UNL1       -0.0468
     16 C           8.9651    2.8636    0.0000 C.3     1  UNL1       -0.0492
     17 C           8.6604    1.9174    0.0000 C.3     1  UNL1       -0.0491
     18 C          11.9162    2.4555    0.0000 C.3     1  UNL1       -0.0482
     19 C          12.3131    4.1705    0.0000 C.3     1  UNL1        0.0544
     20 C           9.4651    0.3338    0.0000 C.3     1  UNL1       -0.0030
     21 C          10.2882    4.5972    0.0000 C.3     1  UNL1       -0.0311
     22 C          10.5805    0.9669    0.0000 C.3     1  UNL1       -0.0590
     23 C          11.9971    5.1631    0.0000 C.2     1  UNL1       -0.0562
     24 C          10.9779    5.3779    0.0000 C.2     1  UNL1       -0.0832
     25 C           8.5991   -0.1662    0.0000 C.3     1  UNL1        0.1099
     26 C          12.6164    3.2176    0.0000 C.3     1  UNL1       -0.0485
     27 C          13.3693    3.9223    0.0000 C.2     1  UNL1        0.1659
     28 C          10.3312   -0.1662    0.0000 C.3     1  UNL1       -0.0588
     29 C          12.7155    5.9762    0.0000 C.3     1  UNL1       -0.0122
     30 C           7.7331    0.3338    0.0000 C.3     1  UNL1        0.0064
     31 C          14.1063    4.7186    0.0000 C.2     1  UNL1       -0.0220
     32 C          13.7772    5.7524    0.0000 C.2     1  UNL1       -0.0767
     33 C           6.8671   -0.1662    0.0000 C.2     1  UNL1       -0.0570
     34 C           7.7331   -1.6662    0.0000 C.2     1  UNL1        0.3376
     35 C           6.8671   -1.1662    0.0000 C.2     1  UNL1        0.0611
     36 C           6.0010    0.3338    0.0000 C.3     1  UNL1       -0.0428
     37 C           6.0010   -1.6662    0.0000 C.3     1  UNL1        0.0825
     38 C           5.1350   -3.1662    0.0000 C.3     1  UNL1        0.1883
     39 C           5.1350   -4.1662    0.0000 C.3     1  UNL1        0.1341
     40 C           4.2690   -4.6662    0.0000 C.3     1  UNL1        0.1141
     41 C           3.4030   -3.1662    0.0000 C.3     1  UNL1        0.1130
     42 C           3.4030   -4.1662    0.0000 C.3     1  UNL1        0.1119
     43 C           2.5369   -2.6662    0.0000 C.3     1  UNL1        0.0730
     44 H           9.6111    3.6434    0.0000 H       1  UNL1        0.0309
     45 H          11.1898    4.2493    0.0000 H       1  UNL1        0.0310
     46 H           8.7080    0.9476    0.0000 H       1  UNL1        0.0310
     47 H          12.4359    3.2243    0.0000 H       1  UNL1        0.0316
     48 H          11.0171    1.1360    0.0000 H       1  UNL1        0.0271
     49 H          11.7747    1.3836    0.0000 H       1  UNL1        0.0271
     50 H           9.0276    3.4805    0.0000 H       1  UNL1        0.0268
     51 H           8.3583    2.9906    0.0000 H       1  UNL1        0.0268
     52 H           8.0935    2.1685    0.0000 H       1  UNL1        0.0268
     53 H           8.3512    1.3800    0.0000 H       1  UNL1        0.0268
     54 H          12.2988    1.9676    0.0000 H       1  UNL1        0.0269
     55 H          12.4631    2.7475    0.0000 H       1  UNL1        0.0269
     56 H          10.0021    0.6438    0.0000 H       1  UNL1        0.0337
     57 H           9.9007    5.0812    0.0000 H       1  UNL1        0.0310
     58 H           9.7451    4.2982    0.0000 H       1  UNL1        0.0310
     59 H           9.9912    0.7743    0.0000 H       1  UNL1        0.0235
     60 H          10.7731    0.3776    0.0000 H       1  UNL1        0.0235
     61 H          11.1699    1.1595    0.0000 H       1  UNL1        0.0235
     62 H          10.7830    5.9664    0.0000 H       1  UNL1        0.0572
     63 H           9.3352   -0.5912    0.0000 H       1  UNL1        0.0740
     64 H          12.0256    3.0296    0.0000 H       1  UNL1        0.0242
     65 H          12.8045    2.6268    0.0000 H       1  UNL1        0.0242
     66 H          13.2072    3.4057    0.0000 H       1  UNL1        0.0242
     67 H          10.0212   -0.7031    0.0000 H       1  UNL1        0.0234
     68 H          10.8681   -0.4762    0.0000 H       1  UNL1        0.0234
     69 H          10.6412    0.3708    0.0000 H       1  UNL1        0.0234
     70 H          12.9453    6.5520    0.0000 H       1  UNL1        0.0353
     71 H          12.1874    6.3011    0.0000 H       1  UNL1        0.0353
     72 H           8.1316    0.8088    0.0000 H       1  UNL1        0.0346
     73 H           7.3346    0.8088    0.0000 H       1  UNL1        0.0346
     74 H          14.7114    4.5837    0.0000 H       1  UNL1        0.0649
     75 H          14.1930    6.2123    0.0000 H       1  UNL1        0.0576
     76 H           6.3110    0.8708    0.0000 H       1  UNL1        0.0275
     77 H           5.4641    0.6438    0.0000 H       1  UNL1        0.0275
     78 H           5.6910   -0.2031    0.0000 H       1  UNL1        0.0275
     79 H           5.7890   -1.0836    0.0000 H       1  UNL1        0.0613
     80 H           5.3905   -1.7738    0.0000 H       1  UNL1        0.0613
     81 H           5.1350   -2.5462    0.0000 H       1  UNL1        0.0938
     82 H           5.1350   -4.7862    0.0000 H       1  UNL1        0.0671
     83 H           3.7320   -4.9762    0.0000 H       1  UNL1        0.0648
     84 H           3.4030   -2.5462    0.0000 H       1  UNL1        0.0647
     85 H           2.8660   -3.8562    0.0000 H       1  UNL1        0.0647
     86 H           1.9264   -2.5585    0.0000 H       1  UNL1        0.0584
     87 H           2.3249   -3.2488    0.0000 H       1  UNL1        0.0584
     88 H           6.5380   -4.3562    0.0000 H       1  UNL1        0.2101
     89 H           3.7320   -5.9762    0.0000 H       1  UNL1        0.2100
     90 H           2.0000   -4.3562    0.0000 H       1  UNL1        0.2100
     91 H           2.0000   -1.3562    0.0000 H       1  UNL1        0.2095
@<TRIPOS>BOND
     1     1    25    1
     2     1    34    1
     3     2    27    2
     4     3    34    2
     5     4    37    1
     6    38     4    1
     7     5    38    1
     8     5    41    1
     9    39     6    1
    10     6    88    1
    11    40     7    1
    12     7    89    1
    13    42     8    1
    14     8    90    1
    15     9    43    1
    16     9    91    1
    17    10    11    1
    18    10    13    1
    19    10    15    1
    20    10    22    1
    21    11    12    1
    22    11    16    1
    23    11    44    1
    24    12    14    1
    25    12    21    1
    26    12    45    1
    27    13    17    1
    28    13    20    1
    29    13    46    1
    30    14    18    1
    31    14    19    1
    32    14    47    1
    33    15    18    1
    34    15    48    1
    35    15    49    1
    36    16    17    1
    37    16    50    1
    38    16    51    1
    39    17    52    1
    40    17    53    1
    41    18    54    1
    42    18    55    1
    43    19    23    1
    44    19    26    1
    45    19    27    1
    46    20    25    1
    47    20    28    1
    48    20    56    1
    49    21    24    1
    50    21    57    1
    51    21    58    1
    52    22    59    1
    53    22    60    1
    54    22    61    1
    55    23    24    2
    56    23    29    1
    57    24    62    1
    58    25    30    1
    59    25    63    1
    60    26    64    1
    61    26    65    1
    62    26    66    1
    63    27    31    1
    64    28    67    1
    65    28    68    1
    66    28    69    1
    67    29    32    1
    68    29    70    1
    69    29    71    1
    70    30    33    1
    71    30    72    1
    72    30    73    1
    73    31    32    2
    74    31    74    1
    75    32    75    1
    76    33    35    2
    77    33    36    1
    78    34    35    1
    79    35    37    1
    80    36    76    1
    81    36    77    1
    82    36    78    1
    83    37    79    1
    84    37    80    1
    85    38    39    1
    86    38    81    1
    87    39    40    1
    88    39    82    1
    89    40    42    1
    90    40    83    1
    91    41    42    1
    92    41    43    1
    93    41    84    1
    94    42    85    1
    95    43    86    1
    96    43    87    1
