@<TRIPOS>MOLECULE
IMPHY006453
 19 19 0 0 0
SMALL
GASTEIGER

@<TRIPOS>ATOM
      1 O           2.8660   -2.8450    0.0000 O.3     1  UNL1       -0.5068
      2 O           4.5981    3.1550    0.0000 O.2     1  UNL1       -0.2963
      3 C           2.8660    0.1550    0.0000 C.ar    1  UNL1       -0.0247
      4 C           2.0000   -0.3450    0.0000 C.ar    1  UNL1       -0.0511
      5 C           3.7320   -0.3450    0.0000 C.ar    1  UNL1       -0.0511
      6 C           2.0000   -1.3450    0.0000 C.ar    1  UNL1       -0.0196
      7 C           3.7320   -1.3450    0.0000 C.ar    1  UNL1       -0.0196
      8 C           2.8660   -1.8450    0.0000 C.ar    1  UNL1        0.1169
      9 C           2.8660    1.1550    0.0000 C.2     1  UNL1       -0.0516
     10 C           3.7320    1.6550    0.0000 C.2     1  UNL1       -0.0219
     11 C           3.7320    2.6550    0.0000 C.2     1  UNL1        0.1431
     12 H           1.4631   -0.0350    0.0000 H       1  UNL1        0.0625
     13 H           4.2690   -0.0350    0.0000 H       1  UNL1        0.0625
     14 H           1.4631   -1.6550    0.0000 H       1  UNL1        0.0654
     15 H           4.2690   -1.6550    0.0000 H       1  UNL1        0.0654
     16 H           2.3291    1.4650    0.0000 H       1  UNL1        0.0624
     17 H           4.2690    1.3450    0.0000 H       1  UNL1        0.0650
     18 H           2.3291   -3.1550    0.0000 H       1  UNL1        0.2921
     19 H           3.1951    2.9650    0.0000 H       1  UNL1        0.1075
@<TRIPOS>BOND
     1     1     8    1
     2     1    18    1
     3     2    11    2
     4     3     4   ar
     5     3     5   ar
     6     3     9    1
     7     4     6   ar
     8     4    12    1
     9     5     7   ar
    10     5    13    1
    11     6     8   ar
    12     6    14    1
    13     7     8   ar
    14     7    15    1
    15     9    10    2
    16     9    16    1
    17    10    11    1
    18    10    17    1
    19    11    19    1
