@<TRIPOS>MOLECULE
IMPHY015059
 29 29 0 0 0
SMALL
GASTEIGER

@<TRIPOS>ATOM
      1 O           4.5981   -0.7500    0.0000 O.3     1  UNL1       -0.3725
      2 C           4.5981    1.2500    0.0000 C.3     1  UNL1       -0.0392
      3 C           3.7320    0.7500    0.0000 C.3     1  UNL1       -0.0203
      4 C           5.4641    0.7500    0.0000 C.3     1  UNL1       -0.0268
      5 C           3.7320   -0.2500    0.0000 C.3     1  UNL1        0.0773
      6 C           5.4641   -0.2500    0.0000 C.3     1  UNL1        0.0487
      7 C           4.5981    2.2500    0.0000 C.3     1  UNL1       -0.0623
      8 C           2.8660   -0.7500    0.0000 C.2     1  UNL1       -0.0569
      9 C           2.8660   -1.7500    0.0000 C.2     1  UNL1       -0.0772
     10 C           2.0000   -2.2500    0.0000 C.3     1  UNL1       -0.0440
     11 C           3.7320   -2.2500    0.0000 C.3     1  UNL1       -0.0440
     12 H           5.1350    1.5600    0.0000 H       1  UNL1        0.0300
     13 H           3.5200    1.3326    0.0000 H       1  UNL1        0.0296
     14 H           3.1215    0.6423    0.0000 H       1  UNL1        0.0296
     15 H           6.0747    0.6423    0.0000 H       1  UNL1        0.0290
     16 H           5.6762    1.3326    0.0000 H       1  UNL1        0.0290
     17 H           3.7320   -0.8700    0.0000 H       1  UNL1        0.0640
     18 H           5.6762   -0.8326    0.0000 H       1  UNL1        0.0560
     19 H           6.0747   -0.1423    0.0000 H       1  UNL1        0.0560
     20 H           5.2181    2.2500    0.0000 H       1  UNL1        0.0232
     21 H           4.5981    2.8700    0.0000 H       1  UNL1        0.0232
     22 H           3.9781    2.2500    0.0000 H       1  UNL1        0.0232
     23 H           2.3291   -0.4400    0.0000 H       1  UNL1        0.0597
     24 H           1.6900   -1.7131    0.0000 H       1  UNL1        0.0274
     25 H           1.4631   -2.5600    0.0000 H       1  UNL1        0.0274
     26 H           2.3100   -2.7869    0.0000 H       1  UNL1        0.0274
     27 H           3.4220   -2.7869    0.0000 H       1  UNL1        0.0274
     28 H           4.2690   -2.5600    0.0000 H       1  UNL1        0.0274
     29 H           4.0420   -1.7131    0.0000 H       1  UNL1        0.0274
@<TRIPOS>BOND
     1     1     5    1
     2     1     6    1
     3     2     3    1
     4     2     4    1
     5     2     7    1
     6     2    12    1
     7     3     5    1
     8     3    13    1
     9     3    14    1
    10     4     6    1
    11     4    15    1
    12     4    16    1
    13     5     8    1
    14     5    17    1
    15     6    18    1
    16     6    19    1
    17     7    20    1
    18     7    21    1
    19     7    22    1
    20     8     9    2
    21     8    23    1
    22     9    10    1
    23     9    11    1
    24    10    24    1
    25    10    25    1
    26    10    26    1
    27    11    27    1
    28    11    28    1
    29    11    29    1
