@<TRIPOS>MOLECULE
IMPHY012455
 150 154 0 0 0
SMALL
GASTEIGER

@<TRIPOS>ATOM
      1 O          11.5263   -3.3664    0.0000 O.3     1  UNL1       -0.3391
      2 O          12.3923   -0.4664    0.0000 O.3     1  UNL1       -0.3430
      3 O           9.7942   -3.3664    0.0000 O.3     1  UNL1       -0.3430
      4 O          12.3923    0.5336    0.0000 O.3     1  UNL1       -0.3402
      5 O           8.0622   -5.3664    0.0000 O.3     1  UNL1       -0.3391
      6 O          10.6603   -2.4664    0.0000 O.3     1  UNL1       -0.4558
      7 O          12.2028    3.1726    0.0000 O.3     1  UNL1       -0.3431
      8 O           9.7942   -6.3664    0.0000 O.3     1  UNL1       -0.4556
      9 O           7.1962   -3.8664    0.0000 O.3     1  UNL1       -0.3420
     10 O           9.7942    0.0336    0.0000 O.3     1  UNL1       -0.3830
     11 O          11.5263   -5.3664    0.0000 O.3     1  UNL1       -0.3830
     12 O          13.4276    4.3974    0.0000 O.3     1  UNL1       -0.3454
     13 O          14.4425    1.1759    0.0000 O.3     1  UNL1       -0.3864
     14 O          14.8826    2.6418    0.0000 O.3     1  UNL1       -0.3841
     15 O           6.3301   -6.3664    0.0000 O.3     1  UNL1       -0.3841
     16 O           4.5981   -3.3664    0.0000 O.3     1  UNL1       -0.4558
     17 O           4.5981   -5.3664    0.0000 O.3     1  UNL1       -0.3853
     18 O          11.8100   -3.9022    0.0000 O.2     1  UNL1       -0.2508
     19 O          11.5263   -6.3664    0.0000 O.2     1  UNL1       -0.2505
     20 O           3.7320   -4.8664    0.0000 O.2     1  UNL1       -0.2505
     21 C          11.5263   -1.9664    0.0000 C.3     1  UNL1        0.1270
     22 C          10.6603   -1.4664    0.0000 C.3     1  UNL1        0.1619
     23 C           8.9282   -4.8664    0.0000 C.3     1  UNL1        0.1270
     24 C           9.7942   -5.3664    0.0000 C.3     1  UNL1        0.1619
     25 C          10.6603   -0.4664    0.0000 C.3     1  UNL1        0.1451
     26 C          12.3923   -1.4664    0.0000 C.3     1  UNL1        0.0887
     27 C          10.6603   -3.8664    0.0000 C.3     1  UNL1        0.1894
     28 C          10.6603   -4.8664    0.0000 C.3     1  UNL1        0.1451
     29 C          11.5263    0.0336    0.0000 C.3     1  UNL1        0.1894
     30 C           8.9282   -3.8664    0.0000 C.3     1  UNL1        0.0887
     31 C          12.6511    1.4996    0.0000 C.3     1  UNL1        0.1160
     32 C          13.6255    1.7526    0.0000 C.3     1  UNL1        0.1143
     33 C          11.9440    2.2067    0.0000 C.3     1  UNL1        0.0877
     34 C          13.8861    2.7251    0.0000 C.3     1  UNL1        0.1341
     35 C           7.1962   -4.8664    0.0000 C.3     1  UNL1        0.1885
     36 C          13.1688    3.4314    0.0000 C.3     1  UNL1        0.1881
     37 C           6.3301   -5.3664    0.0000 C.3     1  UNL1        0.1352
     38 C          13.2583   -1.9664    0.0000 C.3     1  UNL1       -0.0360
     39 C           5.4641   -4.8664    0.0000 C.3     1  UNL1        0.1250
     40 C           5.4641   -3.8664    0.0000 C.3     1  UNL1        0.1571
     41 C           8.0622   -3.3664    0.0000 C.3     1  UNL1       -0.0360
     42 C           6.3301   -3.3664    0.0000 C.3     1  UNL1        0.0984
     43 C          10.9781    1.9479    0.0000 C.3     1  UNL1       -0.0361
     44 C          14.3935    4.1385    0.0000 C.3     1  UNL1        0.0618
     45 C          14.8935    3.2725    0.0000 C.3     1  UNL1       -0.0265
     46 C          11.6650   -2.9128    0.0000 C.2     1  UNL1        0.3075
     47 C           6.3301   -2.3664    0.0000 C.3     1  UNL1       -0.0350
     48 C          15.0023    4.9319    0.0000 C.3     1  UNL1       -0.0265
     49 C          10.6603   -6.8664    0.0000 C.2     1  UNL1        0.3101
     50 C          14.3935    2.4065    0.0000 C.3     1  UNL1       -0.0507
     51 C          12.5310   -2.4128    0.0000 C.3     1  UNL1        0.0450
     52 C          10.6603   -7.8664    0.0000 C.3     1  UNL1        0.0508
     53 C          14.6196    5.8558    0.0000 C.3     1  UNL1       -0.0507
     54 C          14.8935    1.5405    0.0000 C.3     1  UNL1       -0.0530
     55 C          13.4969   -2.6716    0.0000 C.3     1  UNL1       -0.0430
     56 C          14.3935    0.6744    0.0000 C.3     1  UNL1       -0.0531
     57 C          14.2040   -1.9645    0.0000 C.3     1  UNL1       -0.0526
     58 C          14.6523   -0.2915    0.0000 C.3     1  UNL1       -0.0531
     59 C          13.9452   -0.9986    0.0000 C.3     1  UNL1       -0.0530
     60 C          15.2283    6.6491    0.0000 C.3     1  UNL1       -0.0532
     61 C           3.7320   -3.8664    0.0000 C.2     1  UNL1        0.3101
     62 C          11.5263   -8.3664    0.0000 C.3     1  UNL1       -0.0525
     63 C           9.7942   -8.3664    0.0000 C.3     1  UNL1       -0.0525
     64 C           2.8660   -3.3664    0.0000 C.3     1  UNL1        0.0508
     65 C          14.8457    7.5730    0.0000 C.3     1  UNL1       -0.0559
     66 C           2.0000   -3.8664    0.0000 C.3     1  UNL1       -0.0525
     67 C           2.8660   -2.3664    0.0000 C.3     1  UNL1       -0.0525
     68 C          15.4544    8.3664    0.0000 C.3     1  UNL1       -0.0653
     69 H          12.0632   -2.2764    0.0000 H       1  UNL1        0.0661
     70 H          10.0403   -1.4664    0.0000 H       1  UNL1        0.0789
     71 H           8.9282   -5.4864    0.0000 H       1  UNL1        0.0661
     72 H          10.3312   -5.6764    0.0000 H       1  UNL1        0.0789
     73 H          10.6603    0.1536    0.0000 H       1  UNL1        0.0682
     74 H          12.9292   -1.1564    0.0000 H       1  UNL1        0.0621
     75 H          11.1972   -4.1764    0.0000 H       1  UNL1        0.0938
     76 H          10.6603   -5.4864    0.0000 H       1  UNL1        0.0682
     77 H          11.2163    0.5706    0.0000 H       1  UNL1        0.0938
     78 H           8.9282   -3.2464    0.0000 H       1  UNL1        0.0621
     79 H          13.0878    1.0595    0.0000 H       1  UNL1        0.0650
     80 H          13.5143    1.1427    0.0000 H       1  UNL1        0.0648
     81 H          11.5056    2.6451    0.0000 H       1  UNL1        0.0621
     82 H          14.1449    3.2885    0.0000 H       1  UNL1        0.0671
     83 H           7.1962   -5.4864    0.0000 H       1  UNL1        0.0938
     84 H          13.7670    3.5942    0.0000 H       1  UNL1        0.0937
     85 H           5.7932   -5.6764    0.0000 H       1  UNL1        0.0671
     86 H          12.9483   -2.5033    0.0000 H       1  UNL1        0.0255
     87 H          13.7953   -2.2764    0.0000 H       1  UNL1        0.0255
     88 H          13.5683   -1.4294    0.0000 H       1  UNL1        0.0255
     89 H           4.9272   -4.5564    0.0000 H       1  UNL1        0.0659
     90 H           5.4641   -3.2464    0.0000 H       1  UNL1        0.0787
     91 H           8.3722   -2.8294    0.0000 H       1  UNL1        0.0255
     92 H           7.5252   -3.0564    0.0000 H       1  UNL1        0.0255
     93 H           7.7522   -3.9033    0.0000 H       1  UNL1        0.0255
     94 H           6.8671   -3.0564    0.0000 H       1  UNL1        0.0632
     95 H          10.8176    2.5467    0.0000 H       1  UNL1        0.0255
     96 H          10.3792    1.7874    0.0000 H       1  UNL1        0.0255
     97 H          11.1386    1.3490    0.0000 H       1  UNL1        0.0255
     98 H           9.7942    0.6536    0.0000 H       1  UNL1        0.2102
     99 H          12.0632   -5.0564    0.0000 H       1  UNL1        0.2102
    100 H          14.1942    4.7256    0.0000 H       1  UNL1        0.0597
    101 H          15.0034    0.9117    0.0000 H       1  UNL1        0.2100
    102 H          15.3685    2.8740    0.0000 H       1  UNL1        0.0290
    103 H          15.3685    3.6710    0.0000 H       1  UNL1        0.0290
    104 H           6.9501   -2.3664    0.0000 H       1  UNL1        0.0256
    105 H           6.3301   -1.7464    0.0000 H       1  UNL1        0.0256
    106 H           5.7101   -2.3664    0.0000 H       1  UNL1        0.0256
    107 H          15.4211    4.4748    0.0000 H       1  UNL1        0.0290
    108 H          15.5252    5.2650    0.0000 H       1  UNL1        0.0290
    109 H          15.4435    2.9059    0.0000 H       1  UNL1        0.2101
    110 H           5.7932   -6.6764    0.0000 H       1  UNL1        0.2101
    111 H          13.9186    2.8050    0.0000 H       1  UNL1        0.0266
    112 H          13.9186    2.0080    0.0000 H       1  UNL1        0.0266
    113 H          12.8410   -1.8759    0.0000 H       1  UNL1        0.0377
    114 H          12.0926   -1.9744    0.0000 H       1  UNL1        0.0377
    115 H           4.5981   -5.9864    0.0000 H       1  UNL1        0.2101
    116 H          11.1972   -7.5564    0.0000 H       1  UNL1        0.0408
    117 H          14.2007    6.3129    0.0000 H       1  UNL1        0.0266
    118 H          14.0967    5.5226    0.0000 H       1  UNL1        0.0266
    119 H          15.3685    1.1419    0.0000 H       1  UNL1        0.0265
    120 H          15.3685    1.9390    0.0000 H       1  UNL1        0.0265
    121 H          13.2349   -3.2335    0.0000 H       1  UNL1        0.0270
    122 H          14.0048   -3.0272    0.0000 H       1  UNL1        0.0270
    123 H          13.9551    1.1128    0.0000 H       1  UNL1        0.0265
    124 H          13.8566    0.3644    0.0000 H       1  UNL1        0.0265
    125 H          14.5597   -2.4724    0.0000 H       1  UNL1        0.0265
    126 H          14.7659   -1.7025    0.0000 H       1  UNL1        0.0265
    127 H          15.0079   -0.7994    0.0000 H       1  UNL1        0.0265
    128 H          15.2142   -0.0295    0.0000 H       1  UNL1        0.0265
    129 H          13.5896   -0.4907    0.0000 H       1  UNL1        0.0265
    130 H          13.3833   -1.2606    0.0000 H       1  UNL1        0.0265
    131 H          15.6472    6.1920    0.0000 H       1  UNL1        0.0265
    132 H          15.7512    6.9822    0.0000 H       1  UNL1        0.0265
    133 H          11.2163   -8.9033    0.0000 H       1  UNL1        0.0237
    134 H          12.0632   -8.6764    0.0000 H       1  UNL1        0.0237
    135 H          11.8363   -7.8294    0.0000 H       1  UNL1        0.0237
    136 H           9.4842   -7.8294    0.0000 H       1  UNL1        0.0237
    137 H           9.2573   -8.6764    0.0000 H       1  UNL1        0.0237
    138 H          10.1042   -8.9033    0.0000 H       1  UNL1        0.0237
    139 H           2.8660   -3.9864    0.0000 H       1  UNL1        0.0408
    140 H          14.4268    8.0301    0.0000 H       1  UNL1        0.0263
    141 H          14.3228    7.2399    0.0000 H       1  UNL1        0.0263
    142 H           1.6900   -3.3294    0.0000 H       1  UNL1        0.0237
    143 H           1.4631   -4.1764    0.0000 H       1  UNL1        0.0237
    144 H           2.3100   -4.4033    0.0000 H       1  UNL1        0.0237
    145 H           3.4860   -2.3664    0.0000 H       1  UNL1        0.0237
    146 H           2.8660   -1.7464    0.0000 H       1  UNL1        0.0237
    147 H           2.2460   -2.3664    0.0000 H       1  UNL1        0.0237
    148 H          15.9463    7.9889    0.0000 H       1  UNL1        0.0230
    149 H          15.8319    8.8582    0.0000 H       1  UNL1        0.0230
    150 H          14.9625    8.7438    0.0000 H       1  UNL1        0.0230
@<TRIPOS>BOND
     1     1    21    1
     2     1    27    1
     3     2    26    1
     4     2    29    1
     5     3    27    1
     6     3    30    1
     7     4    29    1
     8     4    31    1
     9     5    23    1
    10     5    35    1
    11     6    22    1
    12     6    46    1
    13     7    33    1
    14     7    36    1
    15     8    24    1
    16     8    49    1
    17     9    35    1
    18     9    42    1
    19    10    25    1
    20    10    98    1
    21    11    28    1
    22    11    99    1
    23    12    36    1
    24    12    44    1
    25    13    32    1
    26    13   101    1
    27    14    34    1
    28    14   109    1
    29    15    37    1
    30    15   110    1
    31    16    40    1
    32    16    61    1
    33    17    39    1
    34    17   115    1
    35    18    46    2
    36    19    49    2
    37    20    61    2
    38    21    22    1
    39    21    26    1
    40    21    69    1
    41    22    25    1
    42    22    70    1
    43    23    24    1
    44    23    30    1
    45    23    71    1
    46    24    28    1
    47    24    72    1
    48    25    29    1
    49    25    73    1
    50    26    38    1
    51    26    74    1
    52    27    28    1
    53    27    75    1
    54    28    76    1
    55    29    77    1
    56    30    41    1
    57    30    78    1
    58    31    32    1
    59    31    33    1
    60    31    79    1
    61    32    34    1
    62    32    80    1
    63    33    43    1
    64    33    81    1
    65    34    36    1
    66    34    82    1
    67    35    37    1
    68    35    83    1
    69    36    84    1
    70    37    39    1
    71    37    85    1
    72    38    86    1
    73    38    87    1
    74    38    88    1
    75    39    40    1
    76    39    89    1
    77    40    42    1
    78    40    90    1
    79    41    91    1
    80    41    92    1
    81    41    93    1
    82    42    47    1
    83    42    94    1
    84    43    95    1
    85    43    96    1
    86    43    97    1
    87    44    45    1
    88    44    48    1
    89    44   100    1
    90    45    50    1
    91    45   102    1
    92    45   103    1
    93    46    51    1
    94    47   104    1
    95    47   105    1
    96    47   106    1
    97    48    53    1
    98    48   107    1
    99    48   108    1
   100    49    52    1
   101    50    54    1
   102    50   111    1
   103    50   112    1
   104    51    55    1
   105    51   113    1
   106    51   114    1
   107    52    62    1
   108    52    63    1
   109    52   116    1
   110    53    60    1
   111    53   117    1
   112    53   118    1
   113    54    56    1
   114    54   119    1
   115    54   120    1
   116    55    57    1
   117    55   121    1
   118    55   122    1
   119    56    58    1
   120    56   123    1
   121    56   124    1
   122    57    59    1
   123    57   125    1
   124    57   126    1
   125    58    59    1
   126    58   127    1
   127    58   128    1
   128    59   129    1
   129    59   130    1
   130    60    65    1
   131    60   131    1
   132    60   132    1
   133    61    64    1
   134    62   133    1
   135    62   134    1
   136    62   135    1
   137    63   136    1
   138    63   137    1
   139    63   138    1
   140    64    66    1
   141    64    67    1
   142    64   139    1
   143    65    68    1
   144    65   140    1
   145    65   141    1
   146    66   142    1
   147    66   143    1
   148    66   144    1
   149    67   145    1
   150    67   146    1
   151    67   147    1
   152    68   148    1
   153    68   149    1
   154    68   150    1
