@<TRIPOS>MOLECULE
IMPHY001012
 37 39 0 0 0
SMALL
GASTEIGER

@<TRIPOS>ATOM
      1 O           3.5836    0.3977    0.0000 O.3     1  UNL1       -0.4569
      2 O           2.0000   -0.4070    0.0000 O.2     1  UNL1       -0.2453
      3 C           6.2619    0.0930    0.0000 C.3     1  UNL1       -0.0221
      4 C           5.3958    0.5930    0.0000 C.3     1  UNL1        0.0229
      5 C           4.5298    0.0930    0.0000 C.3     1  UNL1        0.1173
      6 C           6.2619   -0.9070    0.0000 C.3     1  UNL1       -0.0463
      7 C           4.5298   -0.9070    0.0000 C.3     1  UNL1        0.0280
      8 C           7.1719    0.5998    0.0000 C.3     1  UNL1       -0.0467
      9 C           5.3958   -1.4070    0.0000 C.3     1  UNL1       -0.0421
     10 C           5.3798    1.6345    0.0000 C.2     1  UNL1       -0.0695
     11 C           7.1799    1.6414    0.0000 C.3     1  UNL1       -0.0488
     12 C           7.1279   -0.4070    0.0000 C.3     1  UNL1       -0.0589
     13 C           6.2778    2.1623    0.0000 C.3     1  UNL1       -0.0316
     14 C           3.5836   -1.2117    0.0000 C.2     1  UNL1        0.0361
     15 C           3.0000   -0.4070    0.0000 C.2     1  UNL1        0.3353
     16 C           4.5080    2.1245    0.0000 C.2     1  UNL1       -0.0990
     17 C           3.2729   -2.1623    0.0000 C.2     1  UNL1       -0.0883
     18 H           6.1287    1.0237    0.0000 H       1  UNL1        0.0387
     19 H           4.4399    0.9382    0.0000 H       1  UNL1        0.0746
     20 H           6.4739   -1.4896    0.0000 H       1  UNL1        0.0271
     21 H           6.8725   -0.7993    0.0000 H       1  UNL1        0.0271
     22 H           4.4399   -1.7522    0.0000 H       1  UNL1        0.0387
     23 H           7.3764    0.0146    0.0000 H       1  UNL1        0.0271
     24 H           7.7835    0.7012    0.0000 H       1  UNL1        0.0271
     25 H           4.9973   -1.8820    0.0000 H       1  UNL1        0.0272
     26 H           5.7944   -1.8820    0.0000 H       1  UNL1        0.0272
     27 H           7.7899    1.5306    0.0000 H       1  UNL1        0.0268
     28 H           7.3935    2.2235    0.0000 H       1  UNL1        0.0268
     29 H           6.8179   -0.9439    0.0000 H       1  UNL1        0.0235
     30 H           7.6648   -0.7170    0.0000 H       1  UNL1        0.0235
     31 H           7.4379    0.1299    0.0000 H       1  UNL1        0.0235
     32 H           6.6751    2.6382    0.0000 H       1  UNL1        0.0310
     33 H           5.8769    2.6352    0.0000 H       1  UNL1        0.0310
     34 H           4.5009    2.7444    0.0000 H       1  UNL1        0.0535
     35 H           3.9747    1.8083    0.0000 H       1  UNL1        0.0535
     36 H           2.6663   -2.2901    0.0000 H       1  UNL1        0.0540
     37 H           3.6870   -2.6237    0.0000 H       1  UNL1        0.0540
@<TRIPOS>BOND
     1     1     5    1
     2     1    15    1
     3     2    15    2
     4     3     4    1
     5     3     6    1
     6     3     8    1
     7     3    12    1
     8     4     5    1
     9     4    10    1
    10     4    18    1
    11     5     7    1
    12     5    19    1
    13     6     9    1
    14     6    20    1
    15     6    21    1
    16     7     9    1
    17     7    14    1
    18     7    22    1
    19     8    11    1
    20     8    23    1
    21     8    24    1
    22     9    25    1
    23     9    26    1
    24    10    13    1
    25    10    16    2
    26    11    13    1
    27    11    27    1
    28    11    28    1
    29    12    29    1
    30    12    30    1
    31    12    31    1
    32    13    32    1
    33    13    33    1
    34    14    15    1
    35    14    17    2
    36    16    34    1
    37    16    35    1
    38    17    36    1
    39    17    37    1
