@<TRIPOS>MOLECULE
IMPHY010663
 23 24 0 0 0
SMALL
GASTEIGER

@<TRIPOS>ATOM
      1 O           2.5000    3.0272    0.0000 O.3     1  UNL1       -0.4444
      2 O           4.0000    3.8932    0.0000 O.2     1  UNL1       -0.2501
      3 C           4.8660    0.6612    0.0000 C.3     1  UNL1        0.0043
      4 C           4.8660    1.6612    0.0000 C.3     1  UNL1        0.0107
      5 C           4.0000    2.1612    0.0000 C.3     1  UNL1        0.0896
      6 C           5.7600    0.1265    0.0000 C.3     1  UNL1        0.0226
      7 C           4.0000    0.1612    0.0000 C.3     1  UNL1        0.0003
      8 C           5.7600    2.1958    0.0000 C.3     1  UNL1        0.0049
      9 C           3.1340    1.6612    0.0000 C.3     1  UNL1        0.0106
     10 C           3.1340    0.6612    0.0000 C.3     1  UNL1        0.0006
     11 C           4.8660   -0.3388    0.0000 C.3     1  UNL1        0.0003
     12 C           6.6660    1.6820    0.0000 C.3     1  UNL1        0.0220
     13 C           6.6660    0.6404    0.0000 C.2     1  UNL1       -0.0442
     14 C           4.5000    3.0272    0.0000 C.3     1  UNL1        0.0111
     15 C           5.7484   -0.8734    0.0000 C.3     1  UNL1        0.0297
     16 C           3.5000    3.0272    0.0000 C.2     1  UNL1        0.3160
     17 C           7.5301    0.1370    0.0000 C.2     1  UNL1       -0.0091
     18 C           6.6086   -1.3834    0.0000 C.2     1  UNL1       -0.0300
     19 C           6.5970   -2.3833    0.0000 C.2     1  UNL1       -0.0261
     20 C           2.0000    3.8932    0.0000 C.3     1  UNL1        0.2556
     21 C           5.7253   -2.8733    0.0000 C.3     1  UNL1        0.0307
     22 C           7.4572   -2.8933    0.0000 C.2     1  UNL1       -0.0046
     23 C           7.4456   -3.8932    0.0000 C.2     1  UNL1       -0.0003
@<TRIPOS>BOND
     1     1    16    1
     2     1    20    1
     3     2    16    2
     4     3     4    1
     5     3     6    1
     6     3     7    1
     7     3    11    1
     8     4     5    1
     9     4     8    1
    10     5     9    1
    11     5    14    1
    12     5    16    1
    13     6    13    1
    14     6    15    1
    15     7    10    1
    16     8    12    1
    17     9    10    1
    18    12    13    1
    19    13    17    2
    20    15    18    1
    21    18    19    2
    22    19    21    1
    23    19    22    1
    24    22    23    2
