@<TRIPOS>MOLECULE
IMPHY002081
 57 61 0 0 0
SMALL
GASTEIGER

@<TRIPOS>ATOM
      1 O           7.3380    0.9405    0.0000 O.3     1  UNL1       -0.3672
      2 O           7.9657   -1.9063    0.0000 O.3     1  UNL1       -0.4587
      3 O           8.9022    0.3177    0.0000 O.3     1  UNL1       -0.3817
      4 O           5.3194    1.6441    0.0000 O.3     1  UNL1       -0.3888
      5 O           7.0514    2.6441    0.0000 O.3     1  UNL1       -0.3863
      6 O           9.6792    0.1796    0.0000 O.3     1  UNL1       -0.3781
      7 O           4.3678    1.2011    0.0000 O.3     1  UNL1       -0.3883
      8 O           2.5405    0.1834    0.0000 O.3     1  UNL1       -0.3852
      9 O           9.7272   -1.8589    0.0000 O.2     1  UNL1       -0.2478
     10 C           7.0514   -0.3559    0.0000 C.3     1  UNL1        0.0713
     11 C           6.1854    0.1441    0.0000 C.3     1  UNL1        0.0099
     12 C           7.9174    0.1441    0.0000 C.3     1  UNL1        0.1444
     13 C           5.2754   -0.3628    0.0000 C.3     1  UNL1        0.0093
     14 C           7.9174    1.1441    0.0000 C.3     1  UNL1        0.1270
     15 C           7.0675   -1.3974    0.0000 C.3     1  UNL1        0.1146
     16 C           6.1854    1.1441    0.0000 C.3     1  UNL1        0.0880
     17 C           5.2674   -1.4044    0.0000 C.3     1  UNL1       -0.0085
     18 C           6.9380    0.2477    0.0000 C.3     1  UNL1        0.0608
     19 C           7.0514    1.6441    0.0000 C.3     1  UNL1        0.1127
     20 C           6.1694   -1.9252    0.0000 C.3     1  UNL1       -0.0078
     21 C           8.8272   -0.3439    0.0000 C.3     1  UNL1        0.1839
     22 C           4.3486    0.2013    0.0000 C.3     1  UNL1        0.0909
     23 C           4.9406    0.5795    0.0000 C.3     1  UNL1       -0.0562
     24 C           8.4174    2.0101    0.0000 C.3     1  UNL1       -0.0304
     25 C           4.3319   -1.9541    0.0000 C.2     1  UNL1       -0.0702
     26 C           8.8515   -1.3760    0.0000 C.2     1  UNL1        0.3393
     27 C           3.4007   -0.3266    0.0000 C.3     1  UNL1        0.1000
     28 C           3.3923   -1.4116    0.0000 C.2     1  UNL1       -0.0542
     29 C           4.3358   -2.9541    0.0000 C.3     1  UNL1       -0.0434
     30 H           5.4493    0.5691    0.0000 H       1  UNL1        0.0341
     31 H           7.0742   -2.2474    0.0000 H       1  UNL1        0.0741
     32 H           6.1854    1.7641    0.0000 H       1  UNL1        0.0623
     33 H           5.2706   -2.2544    0.0000 H       1  UNL1        0.0353
     34 H           6.5109    0.6971    0.0000 H       1  UNL1        0.0568
     35 H           6.3861   -0.0347    0.0000 H       1  UNL1        0.0568
     36 H           7.5884    1.9541    0.0000 H       1  UNL1        0.0649
     37 H           5.7721   -2.4012    0.0000 H       1  UNL1        0.0307
     38 H           6.5704   -2.3981    0.0000 H       1  UNL1        0.0307
     39 H           9.3719   -0.6402    0.0000 H       1  UNL1        0.0741
     40 H           3.8171    0.5206    0.0000 H       1  UNL1        0.0628
     41 H           5.5248    0.7871    0.0000 H       1  UNL1        0.0236
     42 H           4.7331    1.1638    0.0000 H       1  UNL1        0.0236
     43 H           4.3564    0.3720    0.0000 H       1  UNL1        0.0236
     44 H           8.9544    1.7001    0.0000 H       1  UNL1        0.0259
     45 H           8.7274    2.5470    0.0000 H       1  UNL1        0.0259
     46 H           7.8805    2.3201    0.0000 H       1  UNL1        0.0259
     47 H           9.1143    0.9003    0.0000 H       1  UNL1        0.2104
     48 H           3.4090    0.2933    0.0000 H       1  UNL1        0.0664
     49 H           5.3194    2.2641    0.0000 H       1  UNL1        0.2099
     50 H           2.8542   -1.7195    0.0000 H       1  UNL1        0.0598
     51 H           7.5884    2.9541    0.0000 H       1  UNL1        0.2100
     52 H          10.2245   -0.1156    0.0000 H       1  UNL1        0.2106
     53 H           3.8370    1.5214    0.0000 H       1  UNL1        0.2099
     54 H           3.7158   -2.9565    0.0000 H       1  UNL1        0.0274
     55 H           4.3382   -3.5741    0.0000 H       1  UNL1        0.0274
     56 H           4.9558   -2.9517    0.0000 H       1  UNL1        0.0274
     57 H           2.0000   -0.1204    0.0000 H       1  UNL1        0.2103
@<TRIPOS>BOND
     1     1    14    1
     2     1    18    1
     3     2    15    1
     4     2    26    1
     5    12     3    1
     6     3    47    1
     7    16     4    1
     8     4    49    1
     9    19     5    1
    10     5    51    1
    11    21     6    1
    12     6    52    1
    13    22     7    1
    14     7    53    1
    15    27     8    1
    16     8    57    1
    17     9    26    2
    18    10    11    1
    19    10    12    1
    20    10    15    1
    21    10    18    1
    22    11    13    1
    23    11    16    1
    24    11    30    1
    25    12    14    1
    26    12    21    1
    27    13    17    1
    28    13    22    1
    29    13    23    1
    30    14    19    1
    31    14    24    1
    32    15    20    1
    33    15    31    1
    34    16    19    1
    35    16    32    1
    36    17    20    1
    37    17    25    1
    38    17    33    1
    39    18    34    1
    40    18    35    1
    41    19    36    1
    42    20    37    1
    43    20    38    1
    44    21    26    1
    45    21    39    1
    46    22    27    1
    47    22    40    1
    48    23    41    1
    49    23    42    1
    50    23    43    1
    51    24    44    1
    52    24    45    1
    53    24    46    1
    54    25    28    2
    55    25    29    1
    56    27    28    1
    57    27    48    1
    58    28    50    1
    59    29    54    1
    60    29    55    1
    61    29    56    1
