@<TRIPOS>MOLECULE
IMPHY006673
 44 48 0 0 0
SMALL
GASTEIGER

@<TRIPOS>ATOM
      1 O           6.3474    1.5215    0.0000 O.2     1  UNL1       -0.2723
      2 N           2.8393   -0.4854    0.0000 N.3     1  UNL1       -0.2932
      3 N           5.4814    0.0215    0.0000 N.ar    1  UNL1       -0.2823
      4 C           3.7493    1.0215    0.0000 C.3     1  UNL1        0.0001
      5 C           3.7493    0.0215    0.0000 C.3     1  UNL1        0.0576
      6 C           2.8911    1.5184    0.0000 C.3     1  UNL1       -0.0440
      7 C           4.6153   -0.4785    0.0000 C.ar    1  UNL1        0.0483
      8 C           4.6153    1.5215    0.0000 C.3     1  UNL1        0.0344
      9 C           3.7493    2.0215    0.0000 C.3     1  UNL1       -0.0480
     10 C           2.0256    1.0342    0.0000 C.3     1  UNL1       -0.0396
     11 C           2.0000    0.0428    0.0000 C.3     1  UNL1       -0.0004
     12 C           2.8313   -1.5270    0.0000 C.3     1  UNL1        0.0036
     13 C           4.6314   -1.5200    0.0000 C.ar    1  UNL1       -0.0157
     14 C           3.7334   -2.0478    0.0000 C.3     1  UNL1       -0.0125
     15 C           5.4814    1.0215    0.0000 C.2     1  UNL1        0.2327
     16 C           5.6194   -1.6272    0.0000 C.ar    1  UNL1        0.0038
     17 C           6.0993   -0.7569    0.0000 C.ar    1  UNL1        0.0569
     18 C           2.8833    2.5215    0.0000 C.3     1  UNL1       -0.0647
     19 C           6.1408   -2.5215    0.0000 C.ar    1  UNL1       -0.0523
     20 C           7.1338   -0.7206    0.0000 C.ar    1  UNL1       -0.0372
     21 C           7.1760   -2.5091    0.0000 C.ar    1  UNL1       -0.0611
     22 C           7.6758   -1.6025    0.0000 C.ar    1  UNL1       -0.0598
     23 H           3.7493   -0.8285    0.0000 H       1  UNL1        0.0533
     24 H           3.2922    1.9912    0.0000 H       1  UNL1        0.0272
     25 H           2.4971    1.9971    0.0000 H       1  UNL1        0.0272
     26 H           5.0139    1.9964    0.0000 H       1  UNL1        0.0367
     27 H           4.2168    1.9964    0.0000 H       1  UNL1        0.0367
     28 H           4.3599    1.9138    0.0000 H       1  UNL1        0.0269
     29 H           3.9614    2.6041    0.0000 H       1  UNL1        0.0269
     30 H           1.8239    1.6205    0.0000 H       1  UNL1        0.0278
     31 H           1.4128    0.9399    0.0000 H       1  UNL1        0.0278
     32 H           1.3929    0.1687    0.0000 H       1  UNL1        0.0427
     33 H           1.7682   -0.5322    0.0000 H       1  UNL1        0.0427
     34 H           2.2213   -1.4162    0.0000 H       1  UNL1        0.0430
     35 H           2.6177   -2.1090    0.0000 H       1  UNL1        0.0430
     36 H           3.3361   -2.5238    0.0000 H       1  UNL1        0.0326
     37 H           4.1343   -2.5207    0.0000 H       1  UNL1        0.0326
     38 H           3.1933    3.0584    0.0000 H       1  UNL1        0.0230
     39 H           2.3464    2.8315    0.0000 H       1  UNL1        0.0230
     40 H           2.5733    1.9845    0.0000 H       1  UNL1        0.0230
     41 H           5.8352   -3.0609    0.0000 H       1  UNL1        0.0624
     42 H           7.4269   -0.1742    0.0000 H       1  UNL1        0.0638
     43 H           7.4944   -3.0410    0.0000 H       1  UNL1        0.0618
     44 H           8.2956   -1.5879    0.0000 H       1  UNL1        0.0618
@<TRIPOS>BOND
     1     1    15    2
     2     2     5    1
     3     2    11    1
     4     2    12    1
     5     3     7   ar
     6     3    15   am
     7     3    17   ar
     8     4     5    1
     9     4     6    1
    10     4     8    1
    11     4     9    1
    12     5     7    1
    13     5    23    1
    14     6    10    1
    15     6    24    1
    16     6    25    1
    17     7    13   ar
    18     8    15    1
    19     8    26    1
    20     8    27    1
    21     9    18    1
    22     9    28    1
    23     9    29    1
    24    10    11    1
    25    10    30    1
    26    10    31    1
    27    11    32    1
    28    11    33    1
    29    12    14    1
    30    12    34    1
    31    12    35    1
    32    13    14    1
    33    13    16   ar
    34    14    36    1
    35    14    37    1
    36    16    17   ar
    37    16    19   ar
    38    17    20   ar
    39    18    38    1
    40    18    39    1
    41    18    40    1
    42    19    21   ar
    43    19    41    1
    44    20    22   ar
    45    20    42    1
    46    21    22   ar
    47    21    43    1
    48    22    44    1
