@<TRIPOS>MOLECULE
IMPHY000947
 101 107 0 0 0
SMALL
GASTEIGER

@<TRIPOS>ATOM
      1 O          11.2303    1.7904    0.0000 O.3     1  UNL1       -0.3877
      2 O           9.4651   -3.4132    0.0000 O.3     1  UNL1       -0.3414
      3 O           8.6654    6.1914    0.0000 O.2     1  UNL1       -0.4303
      4 O           7.7331   -3.4132    0.0000 O.3     1  UNL1       -0.3431
      5 O           7.0170    6.7232    0.0000 O.2     1  UNL1       -0.2452
      6 O           9.4651   -5.4132    0.0000 O.3     1  UNL1       -0.3841
      7 O           6.0010   -5.4132    0.0000 O.3     1  UNL1       -0.3402
      8 O           7.7331   -6.4132    0.0000 O.3     1  UNL1       -0.3864
      9 O           5.1350   -3.9132    0.0000 O.3     1  UNL1       -0.3405
     10 O           4.2690   -6.4132    0.0000 O.3     1  UNL1       -0.3841
     11 O           2.5369   -5.4132    0.0000 O.3     1  UNL1       -0.3864
     12 O           2.5369   -3.4132    0.0000 O.3     1  UNL1       -0.3865
     13 O           5.1350   -1.9132    0.0000 O.3     1  UNL1       -0.3924
     14 C          10.3623    2.2870    0.0000 C.3     1  UNL1        0.0751
     15 C           9.4944    2.7837    0.0000 C.3     1  UNL1        0.0039
     16 C          10.3662    1.2870    0.0000 C.3     1  UNL1       -0.0077
     17 C           9.5021    0.7837    0.0000 C.3     1  UNL1       -0.0265
     18 C           9.4901   -0.2579    0.0000 C.3     1  UNL1       -0.0077
     19 C           9.6999    3.7563    0.0000 C.3     1  UNL1       -0.0049
     20 C           8.6303    2.2804    0.0000 C.3     1  UNL1       -0.0442
     21 C           8.6342    1.2804    0.0000 C.3     1  UNL1       -0.0485
     22 C          11.0968    2.9570    0.0000 C.3     1  UNL1       -0.0226
     23 C          10.6882    3.8632    0.0000 C.3     1  UNL1       -0.0429
     24 C          11.2781    0.7837    0.0000 C.3     1  UNL1       -0.0436
     25 C          10.3901   -0.7822    0.0000 C.2     1  UNL1       -0.0649
     26 C           8.6264    3.2803    0.0000 C.3     1  UNL1       -0.0564
     27 C          11.2902   -0.2579    0.0000 C.3     1  UNL1       -0.0308
     28 C           8.5402   -0.7822    0.0000 C.3     1  UNL1       -0.0410
     29 C           8.6260    0.2455    0.0000 C.3     1  UNL1       -0.0556
     30 C           9.0292    4.4980    0.0000 C.ar    1  UNL1       -0.0085
     31 C           8.5276   -1.8671    0.0000 C.3     1  UNL1       -0.0221
     32 C          10.4027   -1.8671    0.0000 C.2     1  UNL1       -0.0558
     33 C           9.4651   -2.4132    0.0000 C.3     1  UNL1        0.0802
     34 C           8.0514    4.2880    0.0000 C.ar    1  UNL1       -0.0486
     35 C           9.3361    5.4497    0.0000 C.ar    1  UNL1        0.0994
     36 C           7.3807    5.0298    0.0000 C.ar    1  UNL1        0.0233
     37 C           8.5991   -3.9132    0.0000 C.3     1  UNL1        0.1884
     38 C           7.6877    5.9815    0.0000 C.ar    1  UNL1        0.3367
     39 C           8.5991   -4.9132    0.0000 C.3     1  UNL1        0.1341
     40 C           7.7331   -5.4132    0.0000 C.3     1  UNL1        0.1143
     41 C           6.8671   -3.9132    0.0000 C.3     1  UNL1        0.0877
     42 C           6.8671   -4.9132    0.0000 C.3     1  UNL1        0.1160
     43 C           6.0010   -3.4132    0.0000 C.3     1  UNL1       -0.0361
     44 C           5.1350   -4.9132    0.0000 C.3     1  UNL1        0.1884
     45 C           4.2690   -5.4132    0.0000 C.3     1  UNL1        0.1341
     46 C           3.4030   -4.9132    0.0000 C.3     1  UNL1        0.1141
     47 C           4.2690   -3.4132    0.0000 C.3     1  UNL1        0.1130
     48 C           3.4030   -3.9132    0.0000 C.3     1  UNL1        0.1119
     49 C           4.2690   -2.4132    0.0000 C.3     1  UNL1        0.0730
     50 H          11.0974    1.7205    0.0000 H       1  UNL1        0.0332
     51 H          10.2366    0.3559    0.0000 H       1  UNL1        0.0313
     52 H           9.9206    4.3357    0.0000 H       1  UNL1        0.0356
     53 H           8.4160    2.8621    0.0000 H       1  UNL1        0.0272
     54 H           8.0201    2.1703    0.0000 H       1  UNL1        0.0272
     55 H           8.0232    1.3857    0.0000 H       1  UNL1        0.0268
     56 H           8.4244    0.6969    0.0000 H       1  UNL1        0.0268
     57 H          11.4642    2.4575    0.0000 H       1  UNL1        0.0293
     58 H          11.6321    3.2698    0.0000 H       1  UNL1        0.0293
     59 H          11.2770    4.0572    0.0000 H       1  UNL1        0.0272
     60 H          10.5571    4.4692    0.0000 H       1  UNL1        0.0272
     61 H          11.8902    0.6847    0.0000 H       1  UNL1        0.0272
     62 H          11.4804    1.3698    0.0000 H       1  UNL1        0.0272
     63 H           8.9344    3.8185    0.0000 H       1  UNL1        0.0236
     64 H           8.0883    3.5883    0.0000 H       1  UNL1        0.0236
     65 H           8.3185    2.7422    0.0000 H       1  UNL1        0.0236
     66 H          11.5060   -0.8391    0.0000 H       1  UNL1        0.0310
     67 H          11.8998   -0.1447    0.0000 H       1  UNL1        0.0310
     68 H           8.3379   -0.1961    0.0000 H       1  UNL1        0.0275
     69 H           7.9281   -0.8812    0.0000 H       1  UNL1        0.0275
     70 H          11.7660    2.1024    0.0000 H       1  UNL1        0.2102
     71 H           8.9380    0.7812    0.0000 H       1  UNL1        0.0238
     72 H           8.0902    0.5575    0.0000 H       1  UNL1        0.0238
     73 H           8.3139   -0.2903    0.0000 H       1  UNL1        0.0238
     74 H           7.9180   -1.7539    0.0000 H       1  UNL1        0.0294
     75 H           8.3118   -2.4483    0.0000 H       1  UNL1        0.0294
     76 H          10.9420   -2.1729    0.0000 H       1  UNL1        0.0597
     77 H          10.0027   -2.7222    0.0000 H       1  UNL1        0.0641
     78 H           7.8611    3.6980    0.0000 H       1  UNL1        0.0623
     79 H           9.9423    5.5799    0.0000 H       1  UNL1        0.1033
     80 H           6.7746    4.8996    0.0000 H       1  UNL1        0.0689
     81 H           8.5991   -3.2932    0.0000 H       1  UNL1        0.0938
     82 H           8.5991   -5.5332    0.0000 H       1  UNL1        0.0671
     83 H           7.1962   -5.7232    0.0000 H       1  UNL1        0.0648
     84 H           6.8671   -3.2932    0.0000 H       1  UNL1        0.0621
     85 H           6.3301   -4.6032    0.0000 H       1  UNL1        0.0650
     86 H          10.0021   -5.1032    0.0000 H       1  UNL1        0.2101
     87 H           6.3110   -2.8763    0.0000 H       1  UNL1        0.0255
     88 H           5.4641   -3.1032    0.0000 H       1  UNL1        0.0255
     89 H           5.6910   -3.9501    0.0000 H       1  UNL1        0.0255
     90 H           8.2700   -6.7232    0.0000 H       1  UNL1        0.2100
     91 H           5.1350   -5.5332    0.0000 H       1  UNL1        0.0938
     92 H           3.7320   -5.7232    0.0000 H       1  UNL1        0.0671
     93 H           2.8660   -4.6032    0.0000 H       1  UNL1        0.0648
     94 H           4.8059   -3.1032    0.0000 H       1  UNL1        0.0647
     95 H           3.4030   -3.2932    0.0000 H       1  UNL1        0.0647
     96 H           4.0569   -1.8306    0.0000 H       1  UNL1        0.0584
     97 H           3.6584   -2.5208    0.0000 H       1  UNL1        0.0584
     98 H           3.7320   -6.7232    0.0000 H       1  UNL1        0.2101
     99 H           2.0000   -5.1032    0.0000 H       1  UNL1        0.2100
    100 H           2.5369   -2.7932    0.0000 H       1  UNL1        0.2100
    101 H           5.1350   -1.2932    0.0000 H       1  UNL1        0.2095
@<TRIPOS>BOND
     1    14     1    1
     2     1    70    1
     3    33     2    1
     4    37     2    1
     5     3    35   ar
     6     3    38   ar
     7     4    37    1
     8     4    41    1
     9     5    38    2
    10    39     6    1
    11     6    86    1
    12    42     7    1
    13    44     7    1
    14    40     8    1
    15     8    90    1
    16     9    44    1
    17     9    47    1
    18    45    10    1
    19    10    98    1
    20    46    11    1
    21    11    99    1
    22    48    12    1
    23    12   100    1
    24    13    49    1
    25    13   101    1
    26    14    15    1
    27    14    16    1
    28    14    22    1
    29    15    19    1
    30    15    20    1
    31    15    26    1
    32    16    17    1
    33    16    24    1
    34    16    50    1
    35    17    18    1
    36    17    21    1
    37    17    51    1
    38    18    25    1
    39    18    28    1
    40    18    29    1
    41    19    23    1
    42    19    30    1
    43    19    52    1
    44    20    21    1
    45    20    53    1
    46    20    54    1
    47    21    55    1
    48    21    56    1
    49    22    23    1
    50    22    57    1
    51    22    58    1
    52    23    59    1
    53    23    60    1
    54    24    27    1
    55    24    61    1
    56    24    62    1
    57    25    27    1
    58    25    32    2
    59    26    63    1
    60    26    64    1
    61    26    65    1
    62    27    66    1
    63    27    67    1
    64    28    31    1
    65    28    68    1
    66    28    69    1
    67    29    71    1
    68    29    72    1
    69    29    73    1
    70    30    34   ar
    71    30    35   ar
    72    31    33    1
    73    31    74    1
    74    31    75    1
    75    32    33    1
    76    32    76    1
    77    33    77    1
    78    34    36   ar
    79    34    78    1
    80    35    79    1
    81    36    38   ar
    82    36    80    1
    83    37    39    1
    84    37    81    1
    85    39    40    1
    86    39    82    1
    87    40    42    1
    88    40    83    1
    89    41    42    1
    90    41    43    1
    91    41    84    1
    92    42    85    1
    93    43    87    1
    94    43    88    1
    95    43    89    1
    96    44    45    1
    97    44    91    1
    98    45    46    1
    99    45    92    1
   100    46    48    1
   101    46    93    1
   102    47    48    1
   103    47    49    1
   104    47    94    1
   105    48    95    1
   106    49    96    1
   107    49    97    1
