@<TRIPOS>MOLECULE
IMPHY003478
 103 104 0 0 0
SMALL
GASTEIGER

@<TRIPOS>ATOM
      1 O          13.9253   -2.2985    0.0000 O.3     1  UNL1       -0.3683
      2 O          11.9573   -2.9979    0.0000 O.3     1  UNL1       -0.3892
      3 O          15.8933   -2.9979    0.0000 O.3     1  UNL1       -0.3892
      4 O          19.6090    0.3478    0.0000 O.2     1  UNL1       -0.2974
      5 O          28.0719    1.4682    0.0000 O.3     1  UNL1       -0.4542
      6 O          27.9786   -0.3114    0.0000 O.2     1  UNL1       -0.2453
      7 C          13.1163   -1.7107    0.0000 C.3     1  UNL1        0.0850
      8 C          14.7343   -1.7107    0.0000 C.3     1  UNL1        0.0850
      9 C          13.4253   -0.7597    0.0000 C.3     1  UNL1       -0.0217
     10 C          14.4253   -0.7597    0.0000 C.3     1  UNL1       -0.0217
     11 C          12.1652   -2.0197    0.0000 C.3     1  UNL1        0.0813
     12 C          15.6854   -2.0197    0.0000 C.3     1  UNL1        0.0813
     13 C          11.4221   -1.3506    0.0000 C.3     1  UNL1       -0.0244
     14 C          16.4285   -1.3506    0.0000 C.3     1  UNL1       -0.0244
     15 C          10.4710   -1.6596    0.0000 C.3     1  UNL1       -0.0506
     16 C          17.3796   -1.6596    0.0000 C.3     1  UNL1       -0.0503
     17 C           9.7279   -0.9905    0.0000 C.3     1  UNL1       -0.0530
     18 C          18.1227   -0.9905    0.0000 C.3     1  UNL1       -0.0463
     19 C           8.7768   -1.2995    0.0000 C.3     1  UNL1       -0.0531
     20 C           8.0337   -0.6304    0.0000 C.3     1  UNL1       -0.0531
     21 C          19.0738   -1.2995    0.0000 C.3     1  UNL1        0.0058
     22 C           7.0826   -0.9394    0.0000 C.3     1  UNL1       -0.0531
     23 C           6.3395   -0.2703    0.0000 C.3     1  UNL1       -0.0531
     24 C          19.8169   -0.6304    0.0000 C.2     1  UNL1        0.1334
     25 C           5.3884   -0.5793    0.0000 C.3     1  UNL1       -0.0531
     26 C          20.7680   -0.9394    0.0000 C.3     1  UNL1        0.0058
     27 C          21.5111   -0.2703    0.0000 C.3     1  UNL1       -0.0464
     28 C           4.6453    0.0898    0.0000 C.3     1  UNL1       -0.0531
     29 C          22.4622   -0.5793    0.0000 C.3     1  UNL1       -0.0527
     30 C          23.2053    0.0898    0.0000 C.3     1  UNL1       -0.0530
     31 C           3.6942   -0.2192    0.0000 C.3     1  UNL1       -0.0533
     32 C          24.1564   -0.2192    0.0000 C.3     1  UNL1       -0.0528
     33 C          24.8995    0.4500    0.0000 C.3     1  UNL1       -0.0488
     34 C           2.9511    0.4500    0.0000 C.3     1  UNL1       -0.0559
     35 C          25.8506    0.1409    0.0000 C.3     1  UNL1       -0.0211
     36 C          26.5937    0.8101    0.0000 C.2     1  UNL1        0.0361
     37 C           2.0000    0.1409    0.0000 C.3     1  UNL1       -0.0653
     38 C          26.4892    1.8046    0.0000 C.2     1  UNL1       -0.0343
     39 C          27.4027    2.2113    0.0000 C.3     1  UNL1        0.1195
     40 C          27.5719    0.6022    0.0000 C.2     1  UNL1        0.3355
     41 C          27.6106    3.1895    0.0000 C.3     1  UNL1       -0.0240
     42 H          12.9833   -2.5503    0.0000 H       1  UNL1        0.0622
     43 H          14.8673   -2.5503    0.0000 H       1  UNL1        0.0622
     44 H          13.4901   -0.1431    0.0000 H       1  UNL1        0.0292
     45 H          12.8188   -0.6308    0.0000 H       1  UNL1        0.0292
     46 H          15.0317   -0.6308    0.0000 H       1  UNL1        0.0292
     47 H          14.3605   -0.1431    0.0000 H       1  UNL1        0.0292
     48 H          11.3568   -2.2824    0.0000 H       1  UNL1        0.0619
     49 H          16.4938   -2.2824    0.0000 H       1  UNL1        0.0619
     50 H          11.9106   -0.9689    0.0000 H       1  UNL1        0.0291
     51 H          11.1310   -0.8032    0.0000 H       1  UNL1        0.0291
     52 H          16.7196   -0.8032    0.0000 H       1  UNL1        0.0291
     53 H          15.9399   -0.9689    0.0000 H       1  UNL1        0.0291
     54 H           9.9824   -2.0413    0.0000 H       1  UNL1        0.0266
     55 H          10.7621   -2.2070    0.0000 H       1  UNL1        0.0266
     56 H          17.0885   -2.2070    0.0000 H       1  UNL1        0.0266
     57 H          17.8681   -2.0413    0.0000 H       1  UNL1        0.0266
     58 H          10.2164   -0.6088    0.0000 H       1  UNL1        0.0265
     59 H           9.4368   -0.4431    0.0000 H       1  UNL1        0.0265
     60 H          11.3676   -3.1895    0.0000 H       1  UNL1        0.2099
     61 H          16.4829   -3.1895    0.0000 H       1  UNL1        0.2099
     62 H          18.4138   -0.4431    0.0000 H       1  UNL1        0.0269
     63 H          17.6341   -0.6088    0.0000 H       1  UNL1        0.0269
     64 H           8.2882   -1.6812    0.0000 H       1  UNL1        0.0265
     65 H           9.0679   -1.8469    0.0000 H       1  UNL1        0.0265
     66 H           8.5222   -0.2487    0.0000 H       1  UNL1        0.0265
     67 H           7.7426   -0.0830    0.0000 H       1  UNL1        0.0265
     68 H          18.7827   -1.8469    0.0000 H       1  UNL1        0.0342
     69 H          19.5623   -1.6812    0.0000 H       1  UNL1        0.0342
     70 H           6.5940   -1.3211    0.0000 H       1  UNL1        0.0265
     71 H           7.3737   -1.4868    0.0000 H       1  UNL1        0.0265
     72 H           6.8280    0.1114    0.0000 H       1  UNL1        0.0265
     73 H           6.0484    0.2772    0.0000 H       1  UNL1        0.0265
     74 H           4.8998   -0.9610    0.0000 H       1  UNL1        0.0265
     75 H           5.6795   -1.1267    0.0000 H       1  UNL1        0.0265
     76 H          20.4769   -1.4868    0.0000 H       1  UNL1        0.0342
     77 H          21.2565   -1.3211    0.0000 H       1  UNL1        0.0342
     78 H          21.8022    0.2772    0.0000 H       1  UNL1        0.0269
     79 H          21.0225    0.1114    0.0000 H       1  UNL1        0.0269
     80 H           5.1338    0.4716    0.0000 H       1  UNL1        0.0265
     81 H           4.3542    0.6373    0.0000 H       1  UNL1        0.0265
     82 H          22.1711   -1.1267    0.0000 H       1  UNL1        0.0265
     83 H          22.9507   -0.9610    0.0000 H       1  UNL1        0.0265
     84 H          23.4964    0.6373    0.0000 H       1  UNL1        0.0265
     85 H          22.7167    0.4716    0.0000 H       1  UNL1        0.0265
     86 H           3.2056   -0.6009    0.0000 H       1  UNL1        0.0265
     87 H           3.9853   -0.7666    0.0000 H       1  UNL1        0.0265
     88 H          23.8653   -0.7666    0.0000 H       1  UNL1        0.0265
     89 H          24.6449   -0.6009    0.0000 H       1  UNL1        0.0265
     90 H          25.1906    0.9974    0.0000 H       1  UNL1        0.0268
     91 H          24.4109    0.8317    0.0000 H       1  UNL1        0.0268
     92 H           3.4396    0.8317    0.0000 H       1  UNL1        0.0263
     93 H           2.6600    0.9974    0.0000 H       1  UNL1        0.0263
     94 H          25.5595   -0.4065    0.0000 H       1  UNL1        0.0315
     95 H          26.3391   -0.2408    0.0000 H       1  UNL1        0.0315
     96 H           1.8084    0.7306    0.0000 H       1  UNL1        0.0230
     97 H           1.4103   -0.0506    0.0000 H       1  UNL1        0.0230
     98 H           2.1916   -0.4487    0.0000 H       1  UNL1        0.0230
     99 H          25.9522    2.1146    0.0000 H       1  UNL1        0.0613
    100 H          28.2238    2.4313    0.0000 H       1  UNL1        0.0777
    101 H          28.2171    3.0606    0.0000 H       1  UNL1        0.0268
    102 H          27.7395    3.7959    0.0000 H       1  UNL1        0.0268
    103 H          27.0042    3.3184    0.0000 H       1  UNL1        0.0268
@<TRIPOS>BOND
     1     1     7    1
     2     1     8    1
     3     2    11    1
     4     2    60    1
     5     3    12    1
     6     3    61    1
     7     4    24    2
     8     5    39    1
     9     5    40    1
    10     6    40    2
    11     7     9    1
    12     7    11    1
    13     7    42    1
    14     8    10    1
    15     8    12    1
    16     8    43    1
    17     9    10    1
    18     9    44    1
    19     9    45    1
    20    10    46    1
    21    10    47    1
    22    11    13    1
    23    11    48    1
    24    12    14    1
    25    12    49    1
    26    13    15    1
    27    13    50    1
    28    13    51    1
    29    14    16    1
    30    14    52    1
    31    14    53    1
    32    15    17    1
    33    15    54    1
    34    15    55    1
    35    16    18    1
    36    16    56    1
    37    16    57    1
    38    17    19    1
    39    17    58    1
    40    17    59    1
    41    18    21    1
    42    18    62    1
    43    18    63    1
    44    19    20    1
    45    19    64    1
    46    19    65    1
    47    20    22    1
    48    20    66    1
    49    20    67    1
    50    21    24    1
    51    21    68    1
    52    21    69    1
    53    22    23    1
    54    22    70    1
    55    22    71    1
    56    23    25    1
    57    23    72    1
    58    23    73    1
    59    24    26    1
    60    25    28    1
    61    25    74    1
    62    25    75    1
    63    26    27    1
    64    26    76    1
    65    26    77    1
    66    27    29    1
    67    27    78    1
    68    27    79    1
    69    28    31    1
    70    28    80    1
    71    28    81    1
    72    29    30    1
    73    29    82    1
    74    29    83    1
    75    30    32    1
    76    30    84    1
    77    30    85    1
    78    31    34    1
    79    31    86    1
    80    31    87    1
    81    32    33    1
    82    32    88    1
    83    32    89    1
    84    33    35    1
    85    33    90    1
    86    33    91    1
    87    34    37    1
    88    34    92    1
    89    34    93    1
    90    35    36    1
    91    35    94    1
    92    35    95    1
    93    36    38    2
    94    36    40    1
    95    37    96    1
    96    37    97    1
    97    37    98    1
    98    38    39    1
    99    38    99    1
   100    39    41    1
   101    39   100    1
   102    41   101    1
   103    41   102    1
   104    41   103    1
