@<TRIPOS>MOLECULE
IMPHY001793
 46 49 0 0 0
SMALL
GASTEIGER

@<TRIPOS>ATOM
      1 O           6.3624    1.3455    0.0000 O.3     1  UNL1       -0.4895
      2 O           9.8984    1.3176    0.0000 O.3     1  UNL1       -0.4815
      3 O           6.3740   -1.7238    0.0000 O.2     1  UNL1       -0.2912
      4 O           3.7205    0.7833    0.0000 O.3     1  UNL1       -0.5064
      5 O           2.0000   -2.2234    0.0000 O.3     1  UNL1       -0.4950
      6 C           5.4564   -0.2100    0.0000 C.3     1  UNL1        0.0846
      7 C           9.9065    2.3592    0.0000 C.3     1  UNL1        0.1235
      8 C           7.2564    0.8108    0.0000 C.ar    1  UNL1        0.1416
      9 C           5.4564    0.8316    0.0000 C.3     1  UNL1        0.1036
     10 C           7.2564   -0.1892    0.0000 C.ar    1  UNL1        0.0605
     11 C           8.1224    1.3108    0.0000 C.ar    1  UNL1        0.0588
     12 C           6.3624   -0.7239    0.0000 C.2     1  UNL1        0.1774
     13 C           8.9884    0.8108    0.0000 C.ar    1  UNL1        0.1324
     14 C           4.5923   -0.7133    0.0000 C.ar    1  UNL1        0.0081
     15 C           9.0044    2.8801    0.0000 C.2     1  UNL1       -0.0408
     16 C           8.1063    2.3523    0.0000 C.2     1  UNL1       -0.0478
     17 C           8.1224   -0.6892    0.0000 C.ar    1  UNL1       -0.0442
     18 C           8.9884   -0.1892    0.0000 C.ar    1  UNL1       -0.0184
     19 C          10.4098    3.2233    0.0000 C.3     1  UNL1       -0.0215
     20 C          10.9065    2.3554    0.0000 C.3     1  UNL1       -0.0215
     21 C           3.7243   -0.2167    0.0000 C.ar    1  UNL1        0.1243
     22 C           4.5961   -1.7133    0.0000 C.ar    1  UNL1       -0.0509
     23 C           2.8602   -0.7200    0.0000 C.ar    1  UNL1        0.0218
     24 C           3.7320   -2.2167    0.0000 C.ar    1  UNL1       -0.0194
     25 C           2.8641   -1.7200    0.0000 C.ar    1  UNL1        0.1236
     26 C           2.0038   -3.2233    0.0000 C.3     1  UNL1        0.0788
     27 H           5.4600   -0.8300    0.0000 H       1  UNL1        0.0464
     28 H           5.2473    1.4153    0.0000 H       1  UNL1        0.0707
     29 H           4.8455    0.7255    0.0000 H       1  UNL1        0.0707
     30 H           9.0020    3.5001    0.0000 H       1  UNL1        0.0611
     31 H           7.5659    2.6561    0.0000 H       1  UNL1        0.0624
     32 H           8.1224   -1.3092    0.0000 H       1  UNL1        0.0627
     33 H           9.5254   -0.4992    0.0000 H       1  UNL1        0.0654
     34 H          10.9455    2.9113    0.0000 H       1  UNL1        0.0271
     35 H          10.9041    1.7354    0.0000 H       1  UNL1        0.0271
     36 H          11.5264    2.3530    0.0000 H       1  UNL1        0.0271
     37 H          10.9088    2.9754    0.0000 H       1  UNL1        0.0271
     38 H          10.7219    3.7591    0.0000 H       1  UNL1        0.0271
     39 H           9.8740    3.5354    0.0000 H       1  UNL1        0.0271
     40 H           5.1343   -2.0213    0.0000 H       1  UNL1        0.0623
     41 H           2.3221   -0.4121    0.0000 H       1  UNL1        0.0691
     42 H           3.7344   -2.8367    0.0000 H       1  UNL1        0.0654
     43 H           3.1824    1.0912    0.0000 H       1  UNL1        0.2921
     44 H           1.3839   -3.2257    0.0000 H       1  UNL1        0.0660
     45 H           2.0062   -3.8433    0.0000 H       1  UNL1        0.0660
     46 H           2.6238   -3.2210    0.0000 H       1  UNL1        0.0660
@<TRIPOS>BOND
     1     1     8    1
     2     1     9    1
     3     2     7    1
     4     2    13    1
     5     3    12    2
     6     4    21    1
     7     4    43    1
     8     5    25    1
     9     5    26    1
    10     6     9    1
    11     6    12    1
    12     6    14    1
    13     6    27    1
    14     7    15    1
    15     7    19    1
    16     7    20    1
    17     8    10   ar
    18     8    11   ar
    19     9    28    1
    20     9    29    1
    21    10    12    1
    22    10    17   ar
    23    11    13   ar
    24    11    16    1
    25    13    18   ar
    26    14    21   ar
    27    14    22   ar
    28    15    16    2
    29    15    30    1
    30    16    31    1
    31    17    18   ar
    32    17    32    1
    33    18    33    1
    34    19    34    1
    35    19    38    1
    36    19    39    1
    37    20    35    1
    38    20    36    1
    39    20    37    1
    40    21    23   ar
    41    22    24   ar
    42    22    40    1
    43    23    25   ar
    44    23    41    1
    45    24    25   ar
    46    24    42    1
    47    26    44    1
    48    26    45    1
    49    26    46    1
