@<TRIPOS>MOLECULE
IMPHY011333
 181 190 0 0 0
SMALL
GASTEIGER

@<TRIPOS>ATOM
      1 O          25.5882    2.3985    0.0000 O.3     1  UNL1       -0.3849
      2 O          25.0242    2.7270    0.0000 O.3     1  UNL1       -0.3851
      3 O          24.3669   -1.0366    0.0000 O.3     1  UNL1       -0.4571
      4 O          25.8727   -0.7987    0.0000 O.3     1  UNL1       -0.3803
      5 O          19.8574    3.5332    0.0000 O.3     1  UNL1       -0.3477
      6 O          26.8849   -1.4321    0.0000 O.2     1  UNL1       -0.2946
      7 O          22.6349   -1.0299    0.0000 O.2     1  UNL1       -0.2450
      8 O          18.1254    3.5332    0.0000 O.3     1  UNL1       -0.3456
      9 O          18.1254    0.5332    0.0000 O.3     1  UNL1       -0.3770
     10 O          16.3933    1.5332    0.0000 O.3     1  UNL1       -0.3429
     11 O          15.5273    3.0332    0.0000 O.3     1  UNL1       -0.3456
     12 O          12.9292    1.5332    0.0000 O.3     1  UNL1       -0.3770
     13 O          12.9292    3.5332    0.0000 O.3     1  UNL1       -0.3429
     14 O          11.1972    3.5332    0.0000 O.3     1  UNL1       -0.3456
     15 O           9.4651    1.5332    0.0000 O.3     1  UNL1       -0.3429
     16 O          11.1972    0.5332    0.0000 O.3     1  UNL1       -0.3770
     17 O           8.5991    3.0332    0.0000 O.3     1  UNL1       -0.3456
     18 O           6.0010    3.5332    0.0000 O.3     1  UNL1       -0.3429
     19 O           6.0010    1.5332    0.0000 O.3     1  UNL1       -0.3770
     20 O           5.1350    2.0332    0.0000 O.3     1  UNL1       -0.3456
     21 O           2.5369    3.5332    0.0000 O.3     1  UNL1       -0.3770
     22 O           2.5369    1.5332    0.0000 O.3     1  UNL1       -0.3867
     23 C          25.2426    1.4601    0.0000 C.3     1  UNL1        0.1070
     24 C          25.2387    0.4601    0.0000 C.3     1  UNL1        0.0718
     25 C          24.3785    1.9634    0.0000 C.3     1  UNL1        0.1024
     26 C          23.5105    1.4668    0.0000 C.3     1  UNL1        0.0033
     27 C          24.3708   -0.0366    0.0000 C.3     1  UNL1        0.1149
     28 C          26.1838    0.1517    0.0000 C.3     1  UNL1        0.1347
     29 C          22.6025    1.9771    0.0000 C.3     1  UNL1       -0.0053
     30 C          23.5067    0.4668    0.0000 C.3     1  UNL1       -0.0086
     31 C          26.1900    1.7612    0.0000 C.3     1  UNL1       -0.0175
     32 C          26.7705    0.9542    0.0000 C.3     1  UNL1       -0.0136
     33 C          24.3986    3.0049    0.0000 C.3     1  UNL1       -0.0025
     34 C          25.2349   -0.5399    0.0000 C.3     1  UNL1       -0.0503
     35 C          22.5985    3.0187    0.0000 C.2     1  UNL1       -0.0647
     36 C          21.6735    1.4166    0.0000 C.3     1  UNL1       -0.0412
     37 C          23.5026    3.5361    0.0000 C.2     1  UNL1       -0.0813
     38 C          22.6064    0.9771    0.0000 C.3     1  UNL1       -0.0555
     39 C          26.9915   -0.4378    0.0000 C.2     1  UNL1        0.1623
     40 C          21.6652    3.5721    0.0000 C.3     1  UNL1       -0.0047
     41 C          20.7277    1.9482    0.0000 C.3     1  UNL1       -0.0254
     42 C          20.7235    3.0332    0.0000 C.3     1  UNL1        0.0654
     43 C          27.9059   -0.0330    0.0000 C.3     1  UNL1       -0.0031
     44 C          23.4990   -1.5332    0.0000 C.2     1  UNL1        0.3395
     45 C          18.9914    3.0332    0.0000 C.3     1  UNL1        0.1624
     46 C          23.4951   -2.5332    0.0000 C.ar    1  UNL1        0.0590
     47 C          18.9914    2.0332    0.0000 C.3     1  UNL1        0.0272
     48 C          18.1254    1.5332    0.0000 C.3     1  UNL1        0.0915
     49 C          22.6272   -3.0299    0.0000 C.ar    1  UNL1       -0.0478
     50 C          24.3592   -3.0365    0.0000 C.ar    1  UNL1       -0.0478
     51 C          17.2594    3.0332    0.0000 C.3     1  UNL1        0.0875
     52 C          17.2594    2.0332    0.0000 C.3     1  UNL1        0.1137
     53 C          22.6233   -4.0299    0.0000 C.ar    1  UNL1       -0.0610
     54 C          24.3554   -4.0365    0.0000 C.ar    1  UNL1       -0.0610
     55 C          16.3933    3.5332    0.0000 C.3     1  UNL1       -0.0361
     56 C          23.4874   -4.5332    0.0000 C.ar    1  UNL1       -0.0617
     57 C          15.5273    2.0332    0.0000 C.3     1  UNL1        0.1626
     58 C          18.9914    0.0332    0.0000 C.3     1  UNL1        0.0369
     59 C          14.6613    1.5332    0.0000 C.3     1  UNL1        0.0272
     60 C          13.7953    2.0332    0.0000 C.3     1  UNL1        0.0915
     61 C          14.6613    3.5332    0.0000 C.3     1  UNL1        0.0875
     62 C          13.7953    3.0332    0.0000 C.3     1  UNL1        0.1137
     63 C          14.6613    4.5332    0.0000 C.3     1  UNL1       -0.0361
     64 C          12.0632    3.0332    0.0000 C.3     1  UNL1        0.1626
     65 C          12.9292    0.5332    0.0000 C.3     1  UNL1        0.0369
     66 C          12.0632    2.0332    0.0000 C.3     1  UNL1        0.0272
     67 C          11.1972    1.5332    0.0000 C.3     1  UNL1        0.0915
     68 C          10.3312    2.0332    0.0000 C.3     1  UNL1        0.1137
     69 C          10.3312    3.0332    0.0000 C.3     1  UNL1        0.0875
     70 C           9.4651    3.5332    0.0000 C.3     1  UNL1       -0.0361
     71 C           8.5991    2.0332    0.0000 C.3     1  UNL1        0.1626
     72 C           7.7331    1.5332    0.0000 C.3     1  UNL1        0.0272
     73 C           6.8671    2.0332    0.0000 C.3     1  UNL1        0.0915
     74 C           6.8671    3.0332    0.0000 C.3     1  UNL1        0.1137
     75 C           7.7331    3.5332    0.0000 C.3     1  UNL1        0.0875
     76 C          10.3312    0.0332    0.0000 C.3     1  UNL1        0.0369
     77 C           5.1350    3.0332    0.0000 C.3     1  UNL1        0.1626
     78 C           7.7331    4.5332    0.0000 C.3     1  UNL1       -0.0361
     79 C           4.2690    3.5332    0.0000 C.3     1  UNL1        0.0272
     80 C           3.4030    3.0332    0.0000 C.3     1  UNL1        0.0911
     81 C           3.4030    2.0332    0.0000 C.3     1  UNL1        0.1073
     82 C           4.2690    1.5332    0.0000 C.3     1  UNL1        0.0871
     83 C           6.0010    0.5332    0.0000 C.3     1  UNL1        0.0369
     84 C           4.2690    0.5332    0.0000 C.3     1  UNL1       -0.0361
     85 C           2.5369    4.5332    0.0000 C.3     1  UNL1        0.0369
     86 H          24.2450    1.0389    0.0000 H       1  UNL1        0.0339
     87 H          23.8327   -0.3445    0.0000 H       1  UNL1        0.0741
     88 H          22.8965    0.5768    0.0000 H       1  UNL1        0.0305
     89 H          23.2924   -0.1150    0.0000 H       1  UNL1        0.0305
     90 H          26.7285    2.0683    0.0000 H       1  UNL1        0.0295
     91 H          25.9411    2.3290    0.0000 H       1  UNL1        0.0295
     92 H          27.2297    0.5377    0.0000 H       1  UNL1        0.0298
     93 H          27.2329    1.3671    0.0000 H       1  UNL1        0.0298
     94 H          25.0073    2.8870    0.0000 H       1  UNL1        0.0336
     95 H          24.6188    3.5844    0.0000 H       1  UNL1        0.0336
     96 H          24.6149   -0.5375    0.0000 H       1  UNL1        0.0238
     97 H          25.2325   -1.1599    0.0000 H       1  UNL1        0.0238
     98 H          25.8549   -0.5423    0.0000 H       1  UNL1        0.0238
     99 H          21.2817    0.9361    0.0000 H       1  UNL1        0.0274
    100 H          22.0799    0.9484    0.0000 H       1  UNL1        0.0274
    101 H          23.5073    4.1560    0.0000 H       1  UNL1        0.0573
    102 H          26.1992    2.5038    0.0000 H       1  UNL1        0.2103
    103 H          21.9864    0.9747    0.0000 H       1  UNL1        0.0238
    104 H          22.6087    0.3571    0.0000 H       1  UNL1        0.0238
    105 H          23.2263    0.9795    0.0000 H       1  UNL1        0.0238
    106 H          25.1342    3.3371    0.0000 H       1  UNL1        0.2103
    107 H          22.0680    4.0434    0.0000 H       1  UNL1        0.0335
    108 H          21.2697    4.0496    0.0000 H       1  UNL1        0.0335
    109 H          20.1164    2.0519    0.0000 H       1  UNL1        0.0290
    110 H          20.5208    1.3637    0.0000 H       1  UNL1        0.0290
    111 H          20.1871    2.7222    0.0000 H       1  UNL1        0.0600
    112 H          26.2866   -1.2603    0.0000 H       1  UNL1        0.2108
    113 H          28.1569   -0.5999    0.0000 H       1  UNL1        0.0307
    114 H          28.4729    0.2180    0.0000 H       1  UNL1        0.0307
    115 H          27.6550    0.5339    0.0000 H       1  UNL1        0.0307
    116 H          18.9914    3.6532    0.0000 H       1  UNL1        0.0910
    117 H          19.2035    1.4506    0.0000 H       1  UNL1        0.0340
    118 H          19.6020    2.1408    0.0000 H       1  UNL1        0.0340
    119 H          18.6623    1.2232    0.0000 H       1  UNL1        0.0624
    120 H          22.0914   -2.7178    0.0000 H       1  UNL1        0.0626
    121 H          24.8973   -2.7286    0.0000 H       1  UNL1        0.0626
    122 H          17.2594    3.6532    0.0000 H       1  UNL1        0.0621
    123 H          16.7224    2.3432    0.0000 H       1  UNL1        0.0649
    124 H          22.0852   -4.3378    0.0000 H       1  UNL1        0.0618
    125 H          24.8911   -4.3486    0.0000 H       1  UNL1        0.0618
    126 H          16.7033    4.0701    0.0000 H       1  UNL1        0.0255
    127 H          15.8564    3.8432    0.0000 H       1  UNL1        0.0255
    128 H          16.0833    2.9963    0.0000 H       1  UNL1        0.0255
    129 H          23.4850   -5.1532    0.0000 H       1  UNL1        0.0618
    130 H          15.5273    1.4132    0.0000 H       1  UNL1        0.0910
    131 H          18.6814   -0.5037    0.0000 H       1  UNL1        0.0524
    132 H          19.5284   -0.2768    0.0000 H       1  UNL1        0.0524
    133 H          19.3014    0.5701    0.0000 H       1  UNL1        0.0524
    134 H          14.2628    1.0582    0.0000 H       1  UNL1        0.0340
    135 H          15.0598    1.0582    0.0000 H       1  UNL1        0.0340
    136 H          13.7953    1.4132    0.0000 H       1  UNL1        0.0624
    137 H          15.1982    3.8432    0.0000 H       1  UNL1        0.0621
    138 H          13.7953    3.6532    0.0000 H       1  UNL1        0.0649
    139 H          15.2813    4.5332    0.0000 H       1  UNL1        0.0255
    140 H          14.6613    5.1532    0.0000 H       1  UNL1        0.0255
    141 H          14.0413    4.5332    0.0000 H       1  UNL1        0.0255
    142 H          12.6002    2.7232    0.0000 H       1  UNL1        0.0910
    143 H          12.3092    0.5332    0.0000 H       1  UNL1        0.0524
    144 H          12.9292   -0.0868    0.0000 H       1  UNL1        0.0524
    145 H          13.5492    0.5332    0.0000 H       1  UNL1        0.0524
    146 H          12.2753    1.4506    0.0000 H       1  UNL1        0.0340
    147 H          12.6738    2.1408    0.0000 H       1  UNL1        0.0340
    148 H          10.6603    1.2232    0.0000 H       1  UNL1        0.0624
    149 H           9.7942    2.3432    0.0000 H       1  UNL1        0.0649
    150 H          10.3312    3.6532    0.0000 H       1  UNL1        0.0621
    151 H           9.7751    4.0701    0.0000 H       1  UNL1        0.0255
    152 H           8.9282    3.8432    0.0000 H       1  UNL1        0.0255
    153 H           9.1551    2.9963    0.0000 H       1  UNL1        0.0255
    154 H           8.5991    1.4132    0.0000 H       1  UNL1        0.0910
    155 H           7.3346    1.0582    0.0000 H       1  UNL1        0.0340
    156 H           8.1316    1.0582    0.0000 H       1  UNL1        0.0340
    157 H           6.3301    2.3432    0.0000 H       1  UNL1        0.0624
    158 H           6.8671    3.6532    0.0000 H       1  UNL1        0.0649
    159 H           8.2700    3.8432    0.0000 H       1  UNL1        0.0621
    160 H          10.0212    0.5701    0.0000 H       1  UNL1        0.0524
    161 H           9.7942   -0.2768    0.0000 H       1  UNL1        0.0524
    162 H          10.6412   -0.5037    0.0000 H       1  UNL1        0.0524
    163 H           5.1350    3.6532    0.0000 H       1  UNL1        0.0910
    164 H           8.3531    4.5332    0.0000 H       1  UNL1        0.0255
    165 H           7.7331    5.1532    0.0000 H       1  UNL1        0.0255
    166 H           7.1131    4.5332    0.0000 H       1  UNL1        0.0255
    167 H           4.6675    4.0081    0.0000 H       1  UNL1        0.0340
    168 H           3.8705    4.0081    0.0000 H       1  UNL1        0.0340
    169 H           3.4030    3.6532    0.0000 H       1  UNL1        0.0624
    170 H           3.4030    1.4132    0.0000 H       1  UNL1        0.0645
    171 H           4.8059    1.2232    0.0000 H       1  UNL1        0.0621
    172 H           5.3810    0.5332    0.0000 H       1  UNL1        0.0524
    173 H           6.0010   -0.0868    0.0000 H       1  UNL1        0.0524
    174 H           6.6210    0.5332    0.0000 H       1  UNL1        0.0524
    175 H           3.6490    0.5332    0.0000 H       1  UNL1        0.0255
    176 H           4.2690   -0.0868    0.0000 H       1  UNL1        0.0255
    177 H           4.8890    0.5332    0.0000 H       1  UNL1        0.0255
    178 H           2.0000    1.8432    0.0000 H       1  UNL1        0.2100
    179 H           3.1569    4.5332    0.0000 H       1  UNL1        0.0524
    180 H           2.5369    5.1532    0.0000 H       1  UNL1        0.0524
    181 H           1.9169    4.5332    0.0000 H       1  UNL1        0.0524
@<TRIPOS>BOND
     1    23     1    1
     2     1   102    1
     3    25     2    1
     4     2   106    1
     5    27     3    1
     6     3    44    1
     7    28     4    1
     8     4   112    1
     9    42     5    1
    10    45     5    1
    11     6    39    2
    12     7    44    2
    13     8    45    1
    14     8    51    1
    15    48     9    1
    16     9    58    1
    17    52    10    1
    18    57    10    1
    19    11    57    1
    20    11    61    1
    21    60    12    1
    22    12    65    1
    23    62    13    1
    24    64    13    1
    25    14    64    1
    26    14    69    1
    27    68    15    1
    28    71    15    1
    29    67    16    1
    30    16    76    1
    31    17    71    1
    32    17    75    1
    33    74    18    1
    34    77    18    1
    35    73    19    1
    36    19    83    1
    37    20    77    1
    38    20    82    1
    39    80    21    1
    40    21    85    1
    41    81    22    1
    42    22   178    1
    43    23    24    1
    44    23    25    1
    45    23    31    1
    46    24    27    1
    47    24    28    1
    48    24    34    1
    49    25    26    1
    50    25    33    1
    51    26    29    1
    52    26    30    1
    53    26    86    1
    54    27    30    1
    55    27    87    1
    56    28    32    1
    57    28    39    1
    58    29    35    1
    59    29    36    1
    60    29    38    1
    61    30    88    1
    62    30    89    1
    63    31    32    1
    64    31    90    1
    65    31    91    1
    66    32    92    1
    67    32    93    1
    68    33    37    1
    69    33    94    1
    70    33    95    1
    71    34    96    1
    72    34    97    1
    73    34    98    1
    74    35    37    2
    75    35    40    1
    76    36    41    1
    77    36    99    1
    78    36   100    1
    79    37   101    1
    80    38   103    1
    81    38   104    1
    82    38   105    1
    83    39    43    1
    84    40    42    1
    85    40   107    1
    86    40   108    1
    87    41    42    1
    88    41   109    1
    89    41   110    1
    90    42   111    1
    91    43   113    1
    92    43   114    1
    93    43   115    1
    94    44    46    1
    95    45    47    1
    96    45   116    1
    97    46    49   ar
    98    46    50   ar
    99    47    48    1
   100    47   117    1
   101    47   118    1
   102    48    52    1
   103    48   119    1
   104    49    53   ar
   105    49   120    1
   106    50    54   ar
   107    50   121    1
   108    51    52    1
   109    51    55    1
   110    51   122    1
   111    52   123    1
   112    53    56   ar
   113    53   124    1
   114    54    56   ar
   115    54   125    1
   116    55   126    1
   117    55   127    1
   118    55   128    1
   119    56   129    1
   120    57    59    1
   121    57   130    1
   122    58   131    1
   123    58   132    1
   124    58   133    1
   125    59    60    1
   126    59   134    1
   127    59   135    1
   128    60    62    1
   129    60   136    1
   130    61    62    1
   131    61    63    1
   132    61   137    1
   133    62   138    1
   134    63   139    1
   135    63   140    1
   136    63   141    1
   137    64    66    1
   138    64   142    1
   139    65   143    1
   140    65   144    1
   141    65   145    1
   142    66    67    1
   143    66   146    1
   144    66   147    1
   145    67    68    1
   146    67   148    1
   147    68    69    1
   148    68   149    1
   149    69    70    1
   150    69   150    1
   151    70   151    1
   152    70   152    1
   153    70   153    1
   154    71    72    1
   155    71   154    1
   156    72    73    1
   157    72   155    1
   158    72   156    1
   159    73    74    1
   160    73   157    1
   161    74    75    1
   162    74   158    1
   163    75    78    1
   164    75   159    1
   165    76   160    1
   166    76   161    1
   167    76   162    1
   168    77    79    1
   169    77   163    1
   170    78   164    1
   171    78   165    1
   172    78   166    1
   173    79    80    1
   174    79   167    1
   175    79   168    1
   176    80    81    1
   177    80   169    1
   178    81    82    1
   179    81   170    1
   180    82    84    1
   181    82   171    1
   182    83   172    1
   183    83   173    1
   184    83   174    1
   185    84   175    1
   186    84   176    1
   187    84   177    1
   188    85   179    1
   189    85   180    1
   190    85   181    1
