@<TRIPOS>MOLECULE
IMPHY008330
 96 103 0 0 0
SMALL
GASTEIGER

@<TRIPOS>ATOM
      1 O           3.1628    0.4877    0.0000 O.3     1  UNL1       -0.3815
      2 O           2.7215    1.3258    0.0000 O.3     1  UNL1       -0.3851
      3 O           4.2391    0.1569    0.0000 O.3     1  UNL1       -0.3765
      4 O           6.0618    3.9187    0.0000 O.3     1  UNL1       -0.3791
      5 O           2.3449    3.4929    0.0000 O.3     1  UNL1       -0.3790
      6 O           1.9441    4.3767    0.0000 O.3     1  UNL1       -0.3793
      7 O           6.9278   -0.3164    0.0000 O.3     1  UNL1       -0.4605
      8 O           6.0618   -1.8164    0.0000 O.2     1  UNL1       -0.2449
      9 O           9.0104   -4.6200    0.0000 O.2     1  UNL1       -0.2748
     10 O           5.7025   -3.4161    0.0000 O.2     1  UNL1       -0.2748
     11 N           7.2571    2.0897    0.0000 N.3     1  UNL1       -0.2955
     12 N           7.4518   -3.7561    0.0000 N.am    1  UNL1       -0.2096
     13 C           5.3104    2.4849    0.0000 C.3     1  UNL1        0.0245
     14 C           5.3104    1.6174    0.0000 C.3     1  UNL1        0.0078
     15 C           6.3124    2.3789    0.0000 C.3     1  UNL1        0.0529
     16 C           4.6321    3.0259    0.0000 C.3     1  UNL1       -0.0228
     17 C           3.7863    1.2695    0.0000 C.3     1  UNL1        0.1371
     18 C           3.7863    2.8328    0.0000 C.3     1  UNL1        0.0209
     19 C           3.4099    2.0511    0.0000 C.3     1  UNL1        0.1063
     20 C           4.6321    1.0764    0.0000 C.3     1  UNL1        0.0953
     21 C           6.0618    1.1836    0.0000 C.3     1  UNL1        0.0236
     22 C           6.0618    2.9187    0.0000 C.3     1  UNL1        0.0661
     23 C           4.7099    3.8900    0.0000 C.3     1  UNL1       -0.0416
     24 C           3.9121    4.2309    0.0000 C.3     1  UNL1        0.0123
     25 C           3.3413    3.5776    0.0000 C.3     1  UNL1        0.0693
     26 C           2.7650    2.3211    0.0000 C.3     1  UNL1        0.0059
     27 C           7.2571    1.3378    0.0000 C.3     1  UNL1        0.0084
     28 C           6.8131    1.6174    0.0000 C.3     1  UNL1       -0.0404
     29 C           2.7650    3.8056    0.0000 C.3     1  UNL1        0.0662
     30 C           6.8131    2.4849    0.0000 C.3     1  UNL1       -0.0254
     31 C           6.0618    0.1836    0.0000 C.3     1  UNL1        0.0999
     32 C           8.0611    2.6844    0.0000 C.3     1  UNL1       -0.0035
     33 C           4.8389   -0.6432    0.0000 C.3     1  UNL1        0.0369
     34 C           8.9780    2.2855    0.0000 C.3     1  UNL1       -0.0523
     35 C           6.9278    4.4187    0.0000 C.3     1  UNL1        0.0368
     36 C           1.9200    2.5877    0.0000 C.3     1  UNL1        0.0368
     37 C           2.0283    5.3732    0.0000 C.3     1  UNL1        0.0368
     38 C           6.9278   -1.3164    0.0000 C.2     1  UNL1        0.3410
     39 C           7.7938   -1.8164    0.0000 C.ar    1  UNL1        0.0807
     40 C           7.7938   -2.8164    0.0000 C.ar    1  UNL1        0.0578
     41 C           8.6598   -1.3164    0.0000 C.ar    1  UNL1       -0.0459
     42 C           8.6598   -3.3164    0.0000 C.ar    1  UNL1       -0.0390
     43 C           9.5259   -1.8164    0.0000 C.ar    1  UNL1       -0.0609
     44 C           9.5259   -2.8164    0.0000 C.ar    1  UNL1       -0.0599
     45 C           8.0110   -4.5851    0.0000 C.2     1  UNL1        0.2267
     46 C           6.4905   -4.0318    0.0000 C.2     1  UNL1        0.2267
     47 C           7.3953   -5.3732    0.0000 C.3     1  UNL1        0.0332
     48 C           6.4556   -5.0311    0.0000 C.3     1  UNL1        0.0332
     49 H           5.3739    0.7697    0.0000 H       1  UNL1        0.0340
     50 H           6.4363    2.9864    0.0000 H       1  UNL1        0.0499
     51 H           5.4137    3.3600    0.0000 H       1  UNL1        0.0312
     52 H           2.9372    2.7947    0.0000 H       1  UNL1        0.0358
     53 H           4.8325    0.4897    0.0000 H       1  UNL1        0.0629
     54 H           5.5248    3.2287    0.0000 H       1  UNL1        0.0602
     55 H           4.8926    4.4824    0.0000 H       1  UNL1        0.0272
     56 H           5.3182    3.7701    0.0000 H       1  UNL1        0.0272
     57 H           3.9329    5.0807    0.0000 H       1  UNL1        0.0351
     58 H           3.0612    4.1307    0.0000 H       1  UNL1        0.0603
     59 H           2.6030    1.7226    0.0000 H       1  UNL1        0.0319
     60 H           2.1504    2.4028    0.0000 H       1  UNL1        0.0319
     61 H           7.8765    1.3643    0.0000 H       1  UNL1        0.0433
     62 H           7.3101    0.7201    0.0000 H       1  UNL1        0.0433
     63 H           7.4237    1.7250    0.0000 H       1  UNL1        0.0273
     64 H           7.0252    1.0348    0.0000 H       1  UNL1        0.0273
     65 H           2.8431    4.4206    0.0000 H       1  UNL1        0.0600
     66 H           7.0252    3.0676    0.0000 H       1  UNL1        0.0290
     67 H           7.4237    2.3773    0.0000 H       1  UNL1        0.0290
     68 H           5.8497   -0.3990    0.0000 H       1  UNL1        0.0704
     69 H           5.4512    0.2912    0.0000 H       1  UNL1        0.0704
     70 H           3.3893   -0.0895    0.0000 H       1  UNL1        0.2105
     71 H           2.1187    1.4705    0.0000 H       1  UNL1        0.2103
     72 H           7.6114    3.1112    0.0000 H       1  UNL1        0.0424
     73 H           8.4034    3.2013    0.0000 H       1  UNL1        0.0424
     74 H           5.3350   -0.2713    0.0000 H       1  UNL1        0.0524
     75 H           5.2108   -1.1393    0.0000 H       1  UNL1        0.0524
     76 H           4.3428   -1.0151    0.0000 H       1  UNL1        0.0524
     77 H           9.2254    2.8540    0.0000 H       1  UNL1        0.0242
     78 H           9.5466    2.0382    0.0000 H       1  UNL1        0.0242
     79 H           8.7307    1.7169    0.0000 H       1  UNL1        0.0242
     80 H           6.6178    4.9557    0.0000 H       1  UNL1        0.0524
     81 H           7.4647    4.7287    0.0000 H       1  UNL1        0.0524
     82 H           7.2378    3.8818    0.0000 H       1  UNL1        0.0524
     83 H           2.4813    2.3242    0.0000 H       1  UNL1        0.0524
     84 H           1.6566    2.0264    0.0000 H       1  UNL1        0.0524
     85 H           1.3588    2.8511    0.0000 H       1  UNL1        0.0524
     86 H           1.4105    5.4253    0.0000 H       1  UNL1        0.0524
     87 H           2.0804    5.9910    0.0000 H       1  UNL1        0.0524
     88 H           2.6461    5.3210    0.0000 H       1  UNL1        0.0524
     89 H           8.6598   -0.6964    0.0000 H       1  UNL1        0.0626
     90 H           8.6598   -3.9364    0.0000 H       1  UNL1        0.0636
     91 H          10.0628   -1.5064    0.0000 H       1  UNL1        0.0618
     92 H          10.0628   -3.1264    0.0000 H       1  UNL1        0.0618
     93 H           7.9211   -5.7017    0.0000 H       1  UNL1        0.0363
     94 H           7.1235   -5.9304    0.0000 H       1  UNL1        0.0363
     95 H           6.3056   -5.6327    0.0000 H       1  UNL1        0.0363
     96 H           5.8417   -4.9448    0.0000 H       1  UNL1        0.0363
@<TRIPOS>BOND
     1    17     1    1
     2     1    70    1
     3    19     2    1
     4     2    71    1
     5    20     3    1
     6     3    33    1
     7    22     4    1
     8     4    35    1
     9    25     5    1
    10     5    36    1
    11    29     6    1
    12     6    37    1
    13     7    31    1
    14     7    38    1
    15     8    38    2
    16     9    45    2
    17    10    46    2
    18    11    15    1
    19    11    27    1
    20    11    32    1
    21    12    40    1
    22    12    45   am
    23    12    46   am
    24    13    14    1
    25    13    15    1
    26    13    16    1
    27    13    22    1
    28    14    20    1
    29    14    21    1
    30    14    49    1
    31    15    17    1
    32    15    50    1
    33    16    18    1
    34    16    23    1
    35    16    51    1
    36    17    19    1
    37    17    20    1
    38    18    19    1
    39    18    25    1
    40    18    52    1
    41    19    26    1
    42    20    53    1
    43    21    27    1
    44    21    28    1
    45    21    31    1
    46    22    30    1
    47    22    54    1
    48    23    24    1
    49    23    55    1
    50    23    56    1
    51    24    25    1
    52    24    29    1
    53    24    57    1
    54    25    58    1
    55    26    29    1
    56    26    59    1
    57    26    60    1
    58    27    61    1
    59    27    62    1
    60    28    30    1
    61    28    63    1
    62    28    64    1
    63    29    65    1
    64    30    66    1
    65    30    67    1
    66    31    68    1
    67    31    69    1
    68    32    34    1
    69    32    72    1
    70    32    73    1
    71    33    74    1
    72    33    75    1
    73    33    76    1
    74    34    77    1
    75    34    78    1
    76    34    79    1
    77    35    80    1
    78    35    81    1
    79    35    82    1
    80    36    83    1
    81    36    84    1
    82    36    85    1
    83    37    86    1
    84    37    87    1
    85    37    88    1
    86    38    39    1
    87    39    40   ar
    88    39    41   ar
    89    40    42   ar
    90    41    43   ar
    91    41    89    1
    92    42    44   ar
    93    42    90    1
    94    43    44   ar
    95    43    91    1
    96    44    92    1
    97    45    47    1
    98    46    48    1
    99    47    48    1
   100    47    93    1
   101    47    94    1
   102    48    95    1
   103    48    96    1
