@<TRIPOS>MOLECULE
IMPHY001220
 21 21 0 0 0
SMALL
GASTEIGER

@<TRIPOS>ATOM
      1 O           2.0000    0.7500    0.0000 O.2     1  UNL1       -0.2775
      2 C           2.8660   -0.7500    0.0000 C.ar    1  UNL1        0.0304
      3 C           2.0000   -1.2500    0.0000 C.ar    1  UNL1       -0.0503
      4 C           3.7320   -1.2500    0.0000 C.ar    1  UNL1       -0.0503
      5 C           2.0000   -2.2500    0.0000 C.ar    1  UNL1       -0.0611
      6 C           3.7320   -2.2500    0.0000 C.ar    1  UNL1       -0.0611
      7 C           2.8660   -2.7500    0.0000 C.ar    1  UNL1       -0.0617
      8 C           2.8660    0.2500    0.0000 C.2     1  UNL1        0.2368
      9 C           3.7320    0.7500    0.0000 C.1     1  UNL1       -0.0096
     10 C           4.5981    1.2500    0.0000 C.1     1  UNL1       -0.0064
     11 C           7.1962    2.7500    0.0000 C.3     1  UNL1       -0.0016
     12 C           5.4641    1.7500    0.0000 C.1     1  UNL1       -0.0147
     13 C           6.3301    2.2500    0.0000 C.1     1  UNL1       -0.0918
     14 H           1.4631   -0.9400    0.0000 H       1  UNL1        0.0625
     15 H           4.2690   -0.9400    0.0000 H       1  UNL1        0.0625
     16 H           1.4631   -2.5600    0.0000 H       1  UNL1        0.0618
     17 H           4.2690   -2.5600    0.0000 H       1  UNL1        0.0618
     18 H           2.8660   -3.3700    0.0000 H       1  UNL1        0.0618
     19 H           7.5062    2.2131    0.0000 H       1  UNL1        0.0362
     20 H           7.7331    3.0600    0.0000 H       1  UNL1        0.0362
     21 H           6.8862    3.2869    0.0000 H       1  UNL1        0.0362
@<TRIPOS>BOND
     1     1     8    2
     2     2     3   ar
     3     2     4   ar
     4     2     8    1
     5     3     5   ar
     6     3    14    1
     7     4     6   ar
     8     4    15    1
     9     5     7   ar
    10     5    16    1
    11     6     7   ar
    12     6    17    1
    13     7    18    1
    14     8     9    1
    15     9    10    3
    16    10    12    1
    17    11    13    1
    18    11    19    1
    19    11    20    1
    20    11    21    1
    21    12    13    3
