@<TRIPOS>MOLECULE
IMPHY002467
 58 58 0 0 0
SMALL
GASTEIGER

@<TRIPOS>ATOM
      1 O           6.3100    1.2990    0.0000 O.3     1  UNL1       -0.4567
      2 O           6.3100    3.0311    0.0000 O.2     1  UNL1       -0.2511
      3 O           2.3100   -2.1651    0.0000 O.3     1  UNL1       -0.4773
      4 O           3.8100   -3.0311    0.0000 O.2     1  UNL1       -0.2455
      5 C           4.8100    0.4330    0.0000 C.3     1  UNL1        0.0207
      6 C           5.3100   -0.4330    0.0000 C.3     1  UNL1       -0.0392
      7 C           5.3100    1.2990    0.0000 C.3     1  UNL1        0.1279
      8 C           6.3100   -0.4330    0.0000 C.3     1  UNL1       -0.0313
      9 C           4.0440    1.0759    0.0000 C.2     1  UNL1       -0.0728
     10 C           4.8100    2.1651    0.0000 C.2     1  UNL1       -0.0444
     11 C           6.8100   -1.2990    0.0000 C.2     1  UNL1       -0.0765
     12 C           3.8100    2.1651    0.0000 C.2     1  UNL1       -0.0728
     13 C           3.3100    1.2990    0.0000 C.3     1  UNL1       -0.0284
     14 C           3.1043    0.7341    0.0000 C.3     1  UNL1       -0.0436
     15 C           6.3100   -2.1651    0.0000 C.2     1  UNL1       -0.0847
     16 C           5.3100   -2.1651    0.0000 C.3     1  UNL1       -0.0303
     17 C           3.8100    0.4330    0.0000 C.3     1  UNL1       -0.0303
     18 C           4.8100   -1.2990    0.0000 C.3     1  UNL1       -0.0178
     19 C           7.8100   -1.2990    0.0000 C.3     1  UNL1       -0.0438
     20 C           4.4376    2.1565    0.0000 C.2     1  UNL1       -0.0993
     21 C           3.3100    3.0311    0.0000 C.3     1  UNL1       -0.0437
     22 C           3.8100   -1.2990    0.0000 C.2     1  UNL1        0.0328
     23 C           3.3100   -0.4330    0.0000 C.2     1  UNL1       -0.0738
     24 C           6.8100    2.1651    0.0000 C.2     1  UNL1        0.3045
     25 C           3.3100   -2.1651    0.0000 C.2     1  UNL1        0.3325
     26 C           7.8100    2.1651    0.0000 C.3     1  UNL1        0.0333
     27 H           4.3350    0.0345    0.0000 H       1  UNL1        0.0385
     28 H           4.7274   -0.6451    0.0000 H       1  UNL1        0.0275
     29 H           5.4177   -1.0436    0.0000 H       1  UNL1        0.0275
     30 H           5.6200    0.7621    0.0000 H       1  UNL1        0.0785
     31 H           6.8926   -0.2210    0.0000 H       1  UNL1        0.0310
     32 H           6.2023    0.1776    0.0000 H       1  UNL1        0.0310
     33 H           5.1200    2.7020    0.0000 H       1  UNL1        0.0608
     34 H           2.8350    1.6976    0.0000 H       1  UNL1        0.0313
     35 H           2.8350    0.9005    0.0000 H       1  UNL1        0.0313
     36 H           2.8924    1.3168    0.0000 H       1  UNL1        0.0274
     37 H           2.5217    0.5222    0.0000 H       1  UNL1        0.0274
     38 H           3.3162    0.1515    0.0000 H       1  UNL1        0.0274
     39 H           6.6200   -2.7020    0.0000 H       1  UNL1        0.0572
     40 H           4.7274   -2.3771    0.0000 H       1  UNL1        0.0311
     41 H           5.4177   -2.7756    0.0000 H       1  UNL1        0.0311
     42 H           4.2850    0.0345    0.0000 H       1  UNL1        0.0311
     43 H           4.2850    0.8315    0.0000 H       1  UNL1        0.0311
     44 H           5.3926   -1.0870    0.0000 H       1  UNL1        0.0318
     45 H           4.7023   -0.6885    0.0000 H       1  UNL1        0.0318
     46 H           7.8100   -1.9190    0.0000 H       1  UNL1        0.0274
     47 H           8.4300   -1.2990    0.0000 H       1  UNL1        0.0274
     48 H           7.8100   -0.6790    0.0000 H       1  UNL1        0.0274
     49 H           5.0482    2.2640    0.0000 H       1  UNL1        0.0534
     50 H           4.0392    2.6315    0.0000 H       1  UNL1        0.0534
     51 H           3.8469    3.3411    0.0000 H       1  UNL1        0.0274
     52 H           3.0000    3.5680    0.0000 H       1  UNL1        0.0274
     53 H           2.7731    2.7211    0.0000 H       1  UNL1        0.0274
     54 H           2.6900   -0.4330    0.0000 H       1  UNL1        0.0577
     55 H           7.8100    1.5451    0.0000 H       1  UNL1        0.0342
     56 H           8.4300    2.1651    0.0000 H       1  UNL1        0.0342
     57 H           7.8100    2.7851    0.0000 H       1  UNL1        0.0342
     58 H           2.0000   -2.7020    0.0000 H       1  UNL1        0.2954
@<TRIPOS>BOND
     1     1     7    1
     2     1    24    1
     3     2    24    2
     4     3    25    1
     5     3    58    1
     6     4    25    2
     7     5     6    1
     8     5     7    1
     9     5     9    1
    10     5    27    1
    11     6     8    1
    12     6    28    1
    13     6    29    1
    14     7    10    1
    15     7    30    1
    16     8    11    1
    17     8    31    1
    18     8    32    1
    19     9    14    1
    20     9    20    2
    21    10    12    2
    22    10    33    1
    23    11    15    2
    24    11    19    1
    25    12    13    1
    26    12    21    1
    27    13    17    1
    28    13    34    1
    29    13    35    1
    30    14    36    1
    31    14    37    1
    32    14    38    1
    33    15    16    1
    34    15    39    1
    35    16    18    1
    36    16    40    1
    37    16    41    1
    38    17    23    1
    39    17    42    1
    40    17    43    1
    41    18    22    1
    42    18    44    1
    43    18    45    1
    44    19    46    1
    45    19    47    1
    46    19    48    1
    47    20    49    1
    48    20    50    1
    49    21    51    1
    50    21    52    1
    51    21    53    1
    52    22    23    2
    53    22    25    1
    54    23    54    1
    55    24    26    1
    56    26    55    1
    57    26    56    1
    58    26    57    1
