@<TRIPOS>MOLECULE
IMPHY010498
 83 88 0 0 0
SMALL
GASTEIGER

@<TRIPOS>ATOM
      1 O           9.9650    1.5581    0.0000 O.3     1  UNL1       -0.3585
      2 O           7.8363    3.5498    0.0000 O.3     1  UNL1       -0.4581
      3 O           9.5407   -0.5372    0.0000 O.3     1  UNL1       -0.3888
      4 O          11.2842    0.4427    0.0000 O.3     1  UNL1       -0.3858
      5 O          10.5045    3.9600    0.0000 O.3     1  UNL1       -0.4496
      6 O          11.9455    2.8013    0.0000 O.3     1  UNL1       -0.4659
      7 O          11.9255    1.0693    0.0000 O.2     1  UNL1       -0.2475
      8 O           8.7754    5.0409    0.0000 O.2     1  UNL1       -0.2466
      9 O           6.8671   -2.1826    0.0000 O.2     1  UNL1       -0.4576
     10 O           5.0597   -1.1298    0.0000 O.2     1  UNL1       -0.2885
     11 O           9.6975    5.4926    0.0000 O.2     1  UNL1       -0.2511
     12 O           5.1350   -2.1826    0.0000 O.3     1  UNL1       -0.3313
     13 O           6.8671   -4.1826    0.0000 O.3     1  UNL1       -0.3829
     14 O           5.1350   -5.1826    0.0000 O.3     1  UNL1       -0.3864
     15 O           3.4030   -4.1826    0.0000 O.3     1  UNL1       -0.3865
     16 O           2.5369   -2.6826    0.0000 O.3     1  UNL1       -0.3924
     17 C           8.7037    1.9727    0.0000 C.3     1  UNL1        0.0471
     18 C           8.6921    0.9728    0.0000 C.3     1  UNL1        0.0084
     19 C           9.5754    2.4626    0.0000 C.3     1  UNL1        0.0603
     20 C           7.7920    0.4485    0.0000 C.3     1  UNL1       -0.0007
     21 C           7.8160    2.5176    0.0000 C.3     1  UNL1        0.1120
     22 C          10.4356    1.9527    0.0000 C.3     1  UNL1        0.2007
     23 C           6.8920    0.9728    0.0000 C.3     1  UNL1       -0.0187
     24 C           9.5523    0.4628    0.0000 C.3     1  UNL1        0.0886
     25 C           9.1651    1.5673    0.0000 C.3     1  UNL1        0.0591
     26 C          10.4241    0.9527    0.0000 C.3     1  UNL1        0.1210
     27 C           6.9040    2.0143    0.0000 C.3     1  UNL1       -0.0108
     28 C           9.6196    3.4941    0.0000 C.3     1  UNL1        0.2056
     29 C           5.9421    0.4485    0.0000 C.3     1  UNL1        0.0261
     30 C           8.4319   -0.3201    0.0000 C.3     1  UNL1       -0.0553
     31 C           7.8046   -0.6365    0.0000 C.2     1  UNL1       -0.0321
     32 C          11.4355    1.9411    0.0000 C.2     1  UNL1        0.3423
     33 C           8.7442    4.0414    0.0000 C.2     1  UNL1        0.3491
     34 C           5.9295   -0.6365    0.0000 C.2     1  UNL1        0.2002
     35 C           6.8671   -1.1826    0.0000 C.2     1  UNL1        0.1631
     36 C           5.0839    0.9618    0.0000 C.3     1  UNL1       -0.0550
     37 C          10.5434    4.9592    0.0000 C.2     1  UNL1        0.3047
     38 C          12.9455    2.7897    0.0000 C.3     1  UNL1        0.0818
     39 C           6.0010   -2.6826    0.0000 C.3     1  UNL1        0.2309
     40 C          11.4283    5.4251    0.0000 C.3     1  UNL1        0.0333
     41 C           6.0010   -3.6826    0.0000 C.3     1  UNL1        0.1454
     42 C           5.1350   -4.1826    0.0000 C.3     1  UNL1        0.1152
     43 C           4.2690   -2.6826    0.0000 C.3     1  UNL1        0.1140
     44 C           4.2690   -3.6826    0.0000 C.3     1  UNL1        0.1120
     45 C           3.4030   -2.1826    0.0000 C.3     1  UNL1        0.0731
     46 H           8.6823    0.1228    0.0000 H       1  UNL1        0.0342
     47 H           9.1590    3.2036    0.0000 H       1  UNL1        0.0384
     48 H           7.0883    2.9569    0.0000 H       1  UNL1        0.0740
     49 H           6.1625    1.4090    0.0000 H       1  UNL1        0.0317
     50 H          10.0856    0.1466    0.0000 H       1  UNL1        0.0623
     51 H           8.6407    1.2365    0.0000 H       1  UNL1        0.0567
     52 H           9.3338    0.9707    0.0000 H       1  UNL1        0.0567
     53 H          10.9645    1.2565    0.0000 H       1  UNL1        0.0654
     54 H           6.7017    2.6004    0.0000 H       1  UNL1        0.0304
     55 H           6.2920    1.9153    0.0000 H       1  UNL1        0.0304
     56 H           9.6426    4.1137    0.0000 H       1  UNL1        0.0857
     57 H           5.4010    0.1457    0.0000 H       1  UNL1        0.0382
     58 H           7.9554   -0.7168    0.0000 H       1  UNL1        0.0238
     59 H           8.8286   -0.7965    0.0000 H       1  UNL1        0.0238
     60 H           8.9084    0.0766    0.0000 H       1  UNL1        0.0238
     61 H           8.3439   -0.9423    0.0000 H       1  UNL1        0.0615
     62 H          10.0741   -0.8534    0.0000 H       1  UNL1        0.2099
     63 H          11.2771   -0.1772    0.0000 H       1  UNL1        0.2100
     64 H           5.4021    1.4938    0.0000 H       1  UNL1        0.0237
     65 H           4.5518    1.2800    0.0000 H       1  UNL1        0.0237
     66 H           4.7656    0.4297    0.0000 H       1  UNL1        0.0237
     67 H          12.9383    2.1698    0.0000 H       1  UNL1        0.0661
     68 H          13.5654    2.7826    0.0000 H       1  UNL1        0.0661
     69 H          12.9526    3.4097    0.0000 H       1  UNL1        0.0661
     70 H           6.0010   -2.0626    0.0000 H       1  UNL1        0.1084
     71 H          11.7171    4.8765    0.0000 H       1  UNL1        0.0342
     72 H          11.9769    5.7140    0.0000 H       1  UNL1        0.0342
     73 H          11.1394    5.9737    0.0000 H       1  UNL1        0.0342
     74 H           6.5380   -3.3726    0.0000 H       1  UNL1        0.0683
     75 H           5.6720   -4.4926    0.0000 H       1  UNL1        0.0648
     76 H           4.2690   -2.0626    0.0000 H       1  UNL1        0.0647
     77 H           3.7320   -3.3726    0.0000 H       1  UNL1        0.0647
     78 H           6.8671   -4.8026    0.0000 H       1  UNL1        0.2102
     79 H           3.8015   -1.7076    0.0000 H       1  UNL1        0.0584
     80 H           3.0044   -1.7076    0.0000 H       1  UNL1        0.0584
     81 H           4.5981   -5.4926    0.0000 H       1  UNL1        0.2100
     82 H           3.4030   -4.8026    0.0000 H       1  UNL1        0.2100
     83 H           2.0000   -2.3726    0.0000 H       1  UNL1        0.2095
@<TRIPOS>BOND
     1     1    22    1
     2     1    25    1
     3     2    21    1
     4     2    33    1
     5    24     3    1
     6     3    62    1
     7    26     4    1
     8     4    63    1
     9    28     5    1
    10     5    37    1
    11     6    32    1
    12     6    38    1
    13     7    32    2
    14     8    33    2
    15     9    35    1
    16    39     9    1
    17    10    34    2
    18    11    37    2
    19    12    39    1
    20    12    43    1
    21    41    13    1
    22    13    78    1
    23    42    14    1
    24    14    81    1
    25    44    15    1
    26    15    82    1
    27    16    45    1
    28    16    83    1
    29    17    18    1
    30    17    19    1
    31    17    21    1
    32    17    25    1
    33    18    20    1
    34    18    24    1
    35    18    46    1
    36    19    22    1
    37    19    28    1
    38    19    47    1
    39    20    23    1
    40    20    30    1
    41    20    31    1
    42    21    27    1
    43    21    48    1
    44    22    26    1
    45    22    32    1
    46    23    27    1
    47    23    29    1
    48    23    49    1
    49    24    26    1
    50    24    50    1
    51    25    51    1
    52    25    52    1
    53    26    53    1
    54    27    54    1
    55    27    55    1
    56    28    33    1
    57    28    56    1
    58    29    34    1
    59    29    36    1
    60    29    57    1
    61    30    58    1
    62    30    59    1
    63    30    60    1
    64    31    35    2
    65    31    61    1
    66    34    35    1
    67    36    64    1
    68    36    65    1
    69    36    66    1
    70    37    40    1
    71    38    67    1
    72    38    68    1
    73    38    69    1
    74    39    41    1
    75    39    70    1
    76    40    71    1
    77    40    72    1
    78    40    73    1
    79    41    42    1
    80    41    74    1
    81    42    44    1
    82    42    75    1
    83    43    44    1
    84    43    45    1
    85    43    76    1
    86    44    77    1
    87    45    79    1
    88    45    80    1
