@<TRIPOS>MOLECULE
IMPHY017021
 21 20 0 0 0
SMALL
GASTEIGER

@<TRIPOS>ATOM
      1 N           8.0622    0.5000    0.0000 N.1     1  UNL1       -0.1966
      2 C           4.5981   -0.5000    0.0000 C.3     1  UNL1       -0.0522
      3 C           3.7320    0.0000    0.0000 C.3     1  UNL1       -0.0533
      4 C           5.4641    0.0000    0.0000 C.3     1  UNL1       -0.0402
      5 C           2.8660   -0.5000    0.0000 C.3     1  UNL1       -0.0559
      6 C           6.3301   -0.5000    0.0000 C.3     1  UNL1        0.0348
      7 C           2.0000    0.0000    0.0000 C.3     1  UNL1       -0.0653
      8 C           7.1962    0.0000    0.0000 C.1     1  UNL1        0.0625
      9 H           4.1996   -0.9749    0.0000 H       1  UNL1        0.0266
     10 H           4.9966   -0.9749    0.0000 H       1  UNL1        0.0266
     11 H           4.1306    0.4749    0.0000 H       1  UNL1        0.0265
     12 H           3.3335    0.4749    0.0000 H       1  UNL1        0.0265
     13 H           5.8626    0.4749    0.0000 H       1  UNL1        0.0275
     14 H           5.0656    0.4749    0.0000 H       1  UNL1        0.0275
     15 H           2.4675   -0.9749    0.0000 H       1  UNL1        0.0263
     16 H           3.2646   -0.9749    0.0000 H       1  UNL1        0.0263
     17 H           5.9316   -0.9749    0.0000 H       1  UNL1        0.0418
     18 H           6.7287   -0.9749    0.0000 H       1  UNL1        0.0418
     19 H           2.3100    0.5369    0.0000 H       1  UNL1        0.0230
     20 H           1.4631    0.3100    0.0000 H       1  UNL1        0.0230
     21 H           1.6900   -0.5369    0.0000 H       1  UNL1        0.0230
@<TRIPOS>BOND
     1     1     8    3
     2     2     3    1
     3     2     4    1
     4     2     9    1
     5     2    10    1
     6     3     5    1
     7     3    11    1
     8     3    12    1
     9     4     6    1
    10     4    13    1
    11     4    14    1
    12     5     7    1
    13     5    15    1
    14     5    16    1
    15     6     8    1
    16     6    17    1
    17     6    18    1
    18     7    19    1
    19     7    20    1
    20     7    21    1
