@<TRIPOS>MOLECULE
IMPHY013530
 97 102 0 0 0
SMALL
GASTEIGER

@<TRIPOS>ATOM
      1 O           6.3038   -4.1039    0.0000 O.3     1  UNL1       -0.4641
      2 O          11.7968   -4.2062    0.0000 O.3     1  UNL1       -0.4796
      3 O           8.0250   -4.5651    0.0000 O.2     1  UNL1       -0.2505
      4 O           9.9845   -5.4015    0.0000 O.3     1  UNL1       -0.4914
      5 O          11.4396   -0.9019    0.0000 O.3     1  UNL1       -0.3943
      6 O           2.8766   -2.2368    0.0000 O.3     1  UNL1       -0.4914
      7 O           2.4608   -0.2805    0.0000 O.3     1  UNL1       -0.5031
      8 O           5.6412    1.4178    0.0000 O.3     1  UNL1       -0.3865
      9 O           2.7881    2.3449    0.0000 O.3     1  UNL1       -0.3943
     10 O          15.3804   -5.1335    0.0000 O.3     1  UNL1       -0.4914
     11 O          16.3804   -3.4015    0.0000 O.3     1  UNL1       -0.5033
     12 O           5.7606    5.0214    0.0000 O.3     1  UNL1       -0.4914
     13 O           3.8585    5.6394    0.0000 O.3     1  UNL1       -0.5033
     14 C           6.4729   -2.4947    0.0000 C.3     1  UNL1        0.0105
     15 C           7.3864   -2.9015    0.0000 C.3     1  UNL1        0.0666
     16 C           8.2525   -2.4015    0.0000 C.3     1  UNL1       -0.0142
     17 C           6.2650   -1.5166    0.0000 C.3     1  UNL1       -0.0209
     18 C           5.8038   -3.2379    0.0000 C.3     1  UNL1        0.0963
     19 C          11.7968   -2.5968    0.0000 C.3     1  UNL1        0.0520
     20 C           7.2819   -3.8960    0.0000 C.2     1  UNL1        0.3109
     21 C           9.1185   -2.9015    0.0000 C.ar    1  UNL1       -0.0426
     22 C          10.8505   -2.9015    0.0000 C.ar    1  UNL1        0.0073
     23 C          12.3804   -3.4015    0.0000 C.3     1  UNL1        0.1344
     24 C           9.9845   -2.4015    0.0000 C.ar    1  UNL1       -0.0512
     25 C           5.3139   -1.2076    0.0000 C.ar    1  UNL1       -0.0430
     26 C          10.8505   -3.9015    0.0000 C.ar    1  UNL1        0.1664
     27 C           9.1185   -3.9015    0.0000 C.ar    1  UNL1       -0.0131
     28 C          12.1074   -1.6462    0.0000 C.3     1  UNL1        0.0548
     29 C           9.9845   -4.4015    0.0000 C.ar    1  UNL1        0.1621
     30 C          13.3804   -3.4015    0.0000 C.ar    1  UNL1       -0.0030
     31 C           5.1060   -0.2294    0.0000 C.ar    1  UNL1       -0.0512
     32 C           4.1550    0.0796    0.0000 C.ar    1  UNL1        0.0060
     33 C           4.5708   -1.8767    0.0000 C.ar    1  UNL1       -0.0131
     34 C           3.9470    1.0577    0.0000 C.3     1  UNL1        0.0409
     35 C           3.4118   -0.5896    0.0000 C.ar    1  UNL1        0.1621
     36 C           3.6197   -1.5677    0.0000 C.ar    1  UNL1        0.1618
     37 C           4.6902    1.7269    0.0000 C.3     1  UNL1        0.0893
     38 C          13.8804   -4.2675    0.0000 C.ar    1  UNL1       -0.0096
     39 C          13.8804   -2.5355    0.0000 C.ar    1  UNL1       -0.0514
     40 C           2.9960    1.3667    0.0000 C.3     1  UNL1        0.0538
     41 C           4.4823    2.7050    0.0000 C.ar    1  UNL1       -0.0148
     42 C          14.8804   -4.2675    0.0000 C.ar    1  UNL1        0.1616
     43 C          14.8804   -2.5355    0.0000 C.ar    1  UNL1       -0.0161
     44 C          15.3804   -3.4015    0.0000 C.ar    1  UNL1        0.1585
     45 C           9.1185   -5.9015    0.0000 C.3     1  UNL1        0.0790
     46 C           5.2254    3.3741    0.0000 C.ar    1  UNL1       -0.0107
     47 C           3.5312    3.0140    0.0000 C.ar    1  UNL1       -0.0524
     48 C           3.0845   -3.2150    0.0000 C.3     1  UNL1        0.0790
     49 C           5.0175    4.3523    0.0000 C.ar    1  UNL1        0.1616
     50 C           3.3233    3.9922    0.0000 C.ar    1  UNL1       -0.0162
     51 C           4.0664    4.6613    0.0000 C.ar    1  UNL1        0.1585
     52 C          14.8804   -5.9996    0.0000 C.3     1  UNL1        0.0790
     53 C           5.5527    5.9996    0.0000 C.3     1  UNL1        0.0790
     54 H           5.8740   -2.3343    0.0000 H       1  UNL1        0.0345
     55 H           7.3540   -2.2823    0.0000 H       1  UNL1        0.0420
     56 H           8.6510   -1.9265    0.0000 H       1  UNL1        0.0321
     57 H           7.8539   -1.9265    0.0000 H       1  UNL1        0.0321
     58 H           6.8846   -1.4950    0.0000 H       1  UNL1        0.0317
     59 H           6.3513   -0.9026    0.0000 H       1  UNL1        0.0317
     60 H           5.3889   -2.7771    0.0000 H       1  UNL1        0.0700
     61 H           5.3022   -3.6023    0.0000 H       1  UNL1        0.0700
     62 H          12.4092   -2.5006    0.0000 H       1  UNL1        0.0412
     63 H          12.6621   -3.9538    0.0000 H       1  UNL1        0.0791
     64 H           9.9845   -1.7815    0.0000 H       1  UNL1        0.0624
     65 H           8.5816   -4.2115    0.0000 H       1  UNL1        0.0658
     66 H          12.6543   -1.9382    0.0000 H       1  UNL1        0.0564
     67 H          12.4900   -1.1583    0.0000 H       1  UNL1        0.0564
     68 H           5.5668    0.1854    0.0000 H       1  UNL1        0.0624
     69 H           4.6997   -2.4832    0.0000 H       1  UNL1        0.0658
     70 H           3.4863    0.6429    0.0000 H       1  UNL1        0.0401
     71 H           5.1509    2.1417    0.0000 H       1  UNL1        0.0650
     72 H          13.5704   -4.8044    0.0000 H       1  UNL1        0.0659
     73 H          13.5704   -1.9985    0.0000 H       1  UNL1        0.0623
     74 H           2.3764    1.3451    0.0000 H       1  UNL1        0.0564
     75 H           2.9097    0.7528    0.0000 H       1  UNL1        0.0564
     76 H          11.6322   -0.3126    0.0000 H       1  UNL1        0.2094
     77 H          15.1904   -1.9985    0.0000 H       1  UNL1        0.0655
     78 H           8.8085   -5.3646    0.0000 H       1  UNL1        0.0660
     79 H           8.5816   -6.2115    0.0000 H       1  UNL1        0.0660
     80 H           9.4285   -6.4384    0.0000 H       1  UNL1        0.0660
     81 H           2.0000   -0.6954    0.0000 H       1  UNL1        0.2923
     82 H           6.1020    1.8327    0.0000 H       1  UNL1        0.2103
     83 H           5.8151    3.1826    0.0000 H       1  UNL1        0.0659
     84 H           3.0705    2.5992    0.0000 H       1  UNL1        0.0622
     85 H           2.1984    2.5365    0.0000 H       1  UNL1        0.2094
     86 H           2.4780   -3.3439    0.0000 H       1  UNL1        0.0660
     87 H           3.2134   -3.8214    0.0000 H       1  UNL1        0.0660
     88 H           3.6909   -3.0861    0.0000 H       1  UNL1        0.0660
     89 H           2.7336    4.1838    0.0000 H       1  UNL1        0.0655
     90 H          16.6904   -2.8646    0.0000 H       1  UNL1        0.2923
     91 H          14.3434   -5.6896    0.0000 H       1  UNL1        0.0660
     92 H          14.5704   -6.5365    0.0000 H       1  UNL1        0.0660
     93 H          15.4173   -6.3096    0.0000 H       1  UNL1        0.0660
     94 H           3.2689    5.8310    0.0000 H       1  UNL1        0.2923
     95 H           6.1592    6.1285    0.0000 H       1  UNL1        0.0660
     96 H           5.4238    6.6060    0.0000 H       1  UNL1        0.0660
     97 H           4.9463    5.8707    0.0000 H       1  UNL1        0.0660
@<TRIPOS>BOND
     1     1    18    1
     2     1    20    1
     3     2    23    1
     4     2    26    1
     5     3    20    2
     6     4    29    1
     7     4    45    1
     8     5    28    1
     9     5    76    1
    10     6    36    1
    11     6    48    1
    12     7    35    1
    13     7    81    1
    14     8    37    1
    15     8    82    1
    16     9    40    1
    17     9    85    1
    18    10    42    1
    19    10    52    1
    20    11    44    1
    21    11    90    1
    22    12    49    1
    23    12    53    1
    24    13    51    1
    25    13    94    1
    26    14    15    1
    27    14    17    1
    28    14    18    1
    29    14    54    1
    30    15    16    1
    31    15    20    1
    32    15    55    1
    33    16    21    1
    34    16    56    1
    35    16    57    1
    36    17    25    1
    37    17    58    1
    38    17    59    1
    39    18    60    1
    40    18    61    1
    41    19    22    1
    42    19    23    1
    43    19    28    1
    44    19    62    1
    45    21    24   ar
    46    21    27   ar
    47    22    24   ar
    48    22    26   ar
    49    23    30    1
    50    23    63    1
    51    24    64    1
    52    25    31   ar
    53    25    33   ar
    54    26    29   ar
    55    27    29   ar
    56    27    65    1
    57    28    66    1
    58    28    67    1
    59    30    38   ar
    60    30    39   ar
    61    31    32   ar
    62    31    68    1
    63    32    34    1
    64    32    35   ar
    65    33    36   ar
    66    33    69    1
    67    34    37    1
    68    34    40    1
    69    34    70    1
    70    35    36   ar
    71    37    41    1
    72    37    71    1
    73    38    42   ar
    74    38    72    1
    75    39    43   ar
    76    39    73    1
    77    40    74    1
    78    40    75    1
    79    41    46   ar
    80    41    47   ar
    81    42    44   ar
    82    43    44   ar
    83    43    77    1
    84    45    78    1
    85    45    79    1
    86    45    80    1
    87    46    49   ar
    88    46    83    1
    89    47    50   ar
    90    47    84    1
    91    48    86    1
    92    48    87    1
    93    48    88    1
    94    49    51   ar
    95    50    51   ar
    96    50    89    1
    97    52    91    1
    98    52    92    1
    99    52    93    1
   100    53    95    1
   101    53    96    1
   102    53    97    1
