@<TRIPOS>MOLECULE
IMPHY013652
 146 153 0 0 0
SMALL
GASTEIGER

@<TRIPOS>ATOM
      1 O           6.0026    3.0782    0.0000 O.3     1  UNL1       -0.3909
      2 O           6.8671   -4.6467    0.0000 O.3     1  UNL1       -0.3448
      3 O           6.8947    4.6161    0.0000 O.3     1  UNL1       -0.3756
      4 O           9.3112   -3.9550    0.0000 O.3     1  UNL1       -0.3944
      5 O           5.1350   -4.6467    0.0000 O.3     1  UNL1       -0.3405
      6 O           6.8671   -6.6467    0.0000 O.3     1  UNL1       -0.3378
      7 O           8.6036    7.6293    0.0000 O.3     1  UNL1       -0.3483
      8 O           5.1350   -7.6467    0.0000 O.3     1  UNL1       -0.3864
      9 O           3.4030   -6.6467    0.0000 O.3     1  UNL1       -0.3865
     10 O           6.0010   -8.1467    0.0000 O.3     1  UNL1       -0.3461
     11 O           2.5369   -5.1467    0.0000 O.3     1  UNL1       -0.3924
     12 O          10.3356    7.6427    0.0000 O.3     1  UNL1       -0.3405
     13 O           8.5991   -7.6467    0.0000 O.3     1  UNL1       -0.3841
     14 O           8.5881    9.6293    0.0000 O.3     1  UNL1       -0.3841
     15 O           8.5991   -9.6467    0.0000 O.3     1  UNL1       -0.3864
     16 O          10.3124   10.6426    0.0000 O.3     1  UNL1       -0.3864
     17 O           6.8671  -10.6467    0.0000 O.3     1  UNL1       -0.3869
     18 O          12.0521    9.6560    0.0000 O.3     1  UNL1       -0.3865
     19 O          12.9297    8.1627    0.0000 O.3     1  UNL1       -0.3924
     20 C           7.7681    0.0535    0.0000 C.3     1  UNL1       -0.0230
     21 C           6.9040   -0.4498    0.0000 C.3     1  UNL1       -0.0294
     22 C           7.7643    1.0535    0.0000 C.3     1  UNL1       -0.0212
     23 C           6.8920   -1.4914    0.0000 C.3     1  UNL1       -0.0252
     24 C           7.7920   -2.0157    0.0000 C.3     1  UNL1       -0.0255
     25 C           6.8963    1.5501    0.0000 C.3     1  UNL1       -0.0085
     26 C           8.6801   -0.4498    0.0000 C.3     1  UNL1       -0.0466
     27 C           6.0361    0.0468    0.0000 C.3     1  UNL1       -0.0488
     28 C           8.6921   -1.4914    0.0000 C.3     1  UNL1       -0.0485
     29 C           6.0322    1.0468    0.0000 C.3     1  UNL1       -0.0470
     30 C           7.8046   -3.1006    0.0000 C.3     1  UNL1        0.0206
     31 C           8.6723    1.5638    0.0000 C.3     1  UNL1       -0.0461
     32 C           6.8762    2.5916    0.0000 C.3     1  UNL1        0.0663
     33 C           5.9421   -2.0157    0.0000 C.3     1  UNL1       -0.0447
     34 C           7.7722    3.1228    0.0000 C.3     1  UNL1        0.0204
     35 C           8.7522    0.2309    0.0000 C.3     1  UNL1       -0.0588
     36 C           8.6763    2.6055    0.0000 C.3     1  UNL1       -0.0424
     37 C           8.7497    0.8836    0.0000 C.3     1  UNL1       -0.0587
     38 C           6.8671   -3.6467    0.0000 C.3     1  UNL1        0.0695
     39 C           6.0279   -0.9881    0.0000 C.3     1  UNL1       -0.0590
     40 C           5.9295   -3.1006    0.0000 C.3     1  UNL1       -0.0254
     41 C           8.6344    3.6294    0.0000 C.3     1  UNL1       -0.0406
     42 C           8.8046   -3.0929    0.0000 C.3     1  UNL1        0.0522
     43 C           6.9024    3.6161    0.0000 C.3     1  UNL1        0.0560
     44 C           8.3113   -3.9628    0.0000 C.3     1  UNL1       -0.0548
     45 C           8.6267    4.6294    0.0000 C.3     1  UNL1       -0.0256
     46 C           7.7568    5.1227    0.0000 C.3     1  UNL1        0.0634
     47 C           6.0010   -5.1467    0.0000 C.3     1  UNL1        0.1886
     48 C           7.7491    6.1227    0.0000 C.3     1  UNL1        0.0060
     49 C           6.0010   -6.1467    0.0000 C.3     1  UNL1        0.1406
     50 C           8.6113    6.6294    0.0000 C.3     1  UNL1        0.0557
     51 C           6.8793    6.6160    0.0000 C.3     1  UNL1       -0.0580
     52 C           5.1350   -6.6467    0.0000 C.3     1  UNL1        0.1144
     53 C           4.2690   -5.1467    0.0000 C.3     1  UNL1        0.1130
     54 C           4.2690   -6.1467    0.0000 C.3     1  UNL1        0.1119
     55 C           3.4030   -4.6467    0.0000 C.3     1  UNL1        0.0730
     56 C           6.8671   -7.6467    0.0000 C.3     1  UNL1        0.1881
     57 C           9.4657    8.1360    0.0000 C.3     1  UNL1        0.1879
     58 C           7.7331   -8.1467    0.0000 C.3     1  UNL1        0.1341
     59 C           9.4580    9.1360    0.0000 C.3     1  UNL1        0.1341
     60 C           7.7331   -9.1467    0.0000 C.3     1  UNL1        0.1137
     61 C           6.0010   -9.1467    0.0000 C.3     1  UNL1        0.0792
     62 C          10.3201    9.6426    0.0000 C.3     1  UNL1        0.1141
     63 C           6.8671   -9.6467    0.0000 C.3     1  UNL1        0.1069
     64 C          11.1977    8.1494    0.0000 C.3     1  UNL1        0.1130
     65 C          11.1900    9.1493    0.0000 C.3     1  UNL1        0.1119
     66 C          12.0676    7.6560    0.0000 C.3     1  UNL1        0.0730
     67 H           7.6385   -0.8777    0.0000 H       1  UNL1        0.0312
     68 H           8.5314   -2.4350    0.0000 H       1  UNL1        0.0313
     69 H           6.1553    1.9666    0.0000 H       1  UNL1        0.0331
     70 H           9.2921   -0.5489    0.0000 H       1  UNL1        0.0271
     71 H           8.8824    0.1362    0.0000 H       1  UNL1        0.0271
     72 H           5.4251    0.1521    0.0000 H       1  UNL1        0.0268
     73 H           5.8263   -0.5366    0.0000 H       1  UNL1        0.0268
     74 H           8.9079   -2.0726    0.0000 H       1  UNL1        0.0268
     75 H           9.3017   -1.3782    0.0000 H       1  UNL1        0.0268
     76 H           5.8179    1.6286    0.0000 H       1  UNL1        0.0269
     77 H           5.4221    0.9368    0.0000 H       1  UNL1        0.0269
     78 H           8.8791    0.9793    0.0000 H       1  UNL1        0.0271
     79 H           9.2836    1.6676    0.0000 H       1  UNL1        0.0271
     80 H           6.3448    2.2723    0.0000 H       1  UNL1        0.0602
     81 H           5.7398   -1.4296    0.0000 H       1  UNL1        0.0271
     82 H           5.3300   -2.1147    0.0000 H       1  UNL1        0.0271
     83 H           8.8623   -0.3792    0.0000 H       1  UNL1        0.0235
     84 H           9.3624    0.3410    0.0000 H       1  UNL1        0.0235
     85 H           8.6422    0.8411    0.0000 H       1  UNL1        0.0235
     86 H           9.2868    2.4970    0.0000 H       1  UNL1        0.0272
     87 H           8.8876    3.1883    0.0000 H       1  UNL1        0.0272
     88 H           8.6444    0.2726    0.0000 H       1  UNL1        0.0235
     89 H           9.3607    0.7783    0.0000 H       1  UNL1        0.0235
     90 H           8.8550    1.4946    0.0000 H       1  UNL1        0.0235
     91 H           7.4046   -3.9557    0.0000 H       1  UNL1        0.0603
     92 H           6.3400   -0.4523    0.0000 H       1  UNL1        0.0235
     93 H           5.4922   -0.6760    0.0000 H       1  UNL1        0.0235
     94 H           5.7158   -1.5238    0.0000 H       1  UNL1        0.0235
     95 H           5.3199   -2.9875    0.0000 H       1  UNL1        0.0290
     96 H           5.7137   -3.6818    0.0000 H       1  UNL1        0.0290
     97 H           8.8509    3.0485    0.0000 H       1  UNL1        0.0273
     98 H           9.2441    3.7418    0.0000 H       1  UNL1        0.0273
     99 H           9.3855   -2.8764    0.0000 H       1  UNL1        0.0563
    100 H           8.6922   -2.4832    0.0000 H       1  UNL1        0.0563
    101 H           6.2910    3.7190    0.0000 H       1  UNL1        0.0566
    102 H           6.6948    3.0319    0.0000 H       1  UNL1        0.0566
    103 H           7.7767   -4.2769    0.0000 H       1  UNL1        0.0237
    104 H           8.6254   -4.4973    0.0000 H       1  UNL1        0.0237
    105 H           8.8458   -3.6486    0.0000 H       1  UNL1        0.0237
    106 H           5.4705    2.7599    0.0000 H       1  UNL1        0.2098
    107 H           9.2381    4.5265    0.0000 H       1  UNL1        0.0290
    108 H           8.8342    5.2136    0.0000 H       1  UNL1        0.0290
    109 H           8.4896    5.5534    0.0000 H       1  UNL1        0.0599
    110 H           6.0010   -4.5267    0.0000 H       1  UNL1        0.0938
    111 H           9.9312   -3.9503    0.0000 H       1  UNL1        0.2094
    112 H           7.2146    5.8086    0.0000 H       1  UNL1        0.0345
    113 H           6.0010   -6.7667    0.0000 H       1  UNL1        0.0675
    114 H           8.8278    6.0484    0.0000 H       1  UNL1        0.0564
    115 H           9.2210    6.7417    0.0000 H       1  UNL1        0.0564
    116 H           7.1851    7.1553    0.0000 H       1  UNL1        0.0234
    117 H           6.3400    6.9219    0.0000 H       1  UNL1        0.0234
    118 H           6.5734    6.0767    0.0000 H       1  UNL1        0.0234
    119 H           4.5981   -6.9567    0.0000 H       1  UNL1        0.0648
    120 H           4.2690   -4.5267    0.0000 H       1  UNL1        0.0647
    121 H           4.2690   -6.7667    0.0000 H       1  UNL1        0.0647
    122 H           3.8015   -4.1718    0.0000 H       1  UNL1        0.0584
    123 H           3.0044   -4.1718    0.0000 H       1  UNL1        0.0584
    124 H           7.4040   -7.3367    0.0000 H       1  UNL1        0.0937
    125 H           4.5981   -7.9567    0.0000 H       1  UNL1        0.2100
    126 H           3.4030   -7.2667    0.0000 H       1  UNL1        0.2100
    127 H           9.4705    7.5160    0.0000 H       1  UNL1        0.0937
    128 H           8.2700   -8.4567    0.0000 H       1  UNL1        0.0671
    129 H           8.9235    8.8218    0.0000 H       1  UNL1        0.0671
    130 H           2.0000   -4.8367    0.0000 H       1  UNL1        0.2095
    131 H           7.7331   -9.7667    0.0000 H       1  UNL1        0.0647
    132 H           5.3905   -9.0391    0.0000 H       1  UNL1        0.0587
    133 H           5.7890   -9.7293    0.0000 H       1  UNL1        0.0587
    134 H          10.8547    9.9568    0.0000 H       1  UNL1        0.0648
    135 H           6.3301   -9.9567    0.0000 H       1  UNL1        0.0643
    136 H          11.2025    7.5294    0.0000 H       1  UNL1        0.0647
    137 H          11.7293    8.8435    0.0000 H       1  UNL1        0.0647
    138 H           9.1360   -7.9567    0.0000 H       1  UNL1        0.2101
    139 H           8.5834   10.2493    0.0000 H       1  UNL1        0.2101
    140 H           8.5991  -10.2667    0.0000 H       1  UNL1        0.2100
    141 H          11.6727    7.1780    0.0000 H       1  UNL1        0.0584
    142 H          12.4697    7.1842    0.0000 H       1  UNL1        0.0584
    143 H          10.8470   10.9567    0.0000 H       1  UNL1        0.2100
    144 H           6.3301  -10.9567    0.0000 H       1  UNL1        0.2100
    145 H          12.0474   10.2760    0.0000 H       1  UNL1        0.2100
    146 H          13.4690    7.8568    0.0000 H       1  UNL1        0.2095
@<TRIPOS>BOND
     1    32     1    1
     2     1   106    1
     3    38     2    1
     4    47     2    1
     5     3    43    1
     6     3    46    1
     7     4    42    1
     8     4   111    1
     9     5    47    1
    10     5    53    1
    11    49     6    1
    12    56     6    1
    13     7    50    1
    14    57     7    1
    15    52     8    1
    16     8   125    1
    17    54     9    1
    18     9   126    1
    19    10    56    1
    20    10    61    1
    21    11    55    1
    22    11   130    1
    23    12    57    1
    24    12    64    1
    25    58    13    1
    26    13   138    1
    27    59    14    1
    28    14   139    1
    29    60    15    1
    30    15   140    1
    31    62    16    1
    32    16   143    1
    33    63    17    1
    34    17   144    1
    35    65    18    1
    36    18   145    1
    37    19    66    1
    38    19   146    1
    39    20    21    1
    40    20    22    1
    41    20    26    1
    42    20    35    1
    43    21    23    1
    44    21    27    1
    45    21    67    1
    46    22    25    1
    47    22    31    1
    48    22    37    1
    49    23    24    1
    50    23    33    1
    51    23    39    1
    52    24    28    1
    53    24    30    1
    54    24    68    1
    55    25    29    1
    56    25    32    1
    57    25    69    1
    58    26    28    1
    59    26    70    1
    60    26    71    1
    61    27    29    1
    62    27    72    1
    63    27    73    1
    64    28    74    1
    65    28    75    1
    66    29    76    1
    67    29    77    1
    68    30    38    1
    69    30    42    1
    70    30    44    1
    71    31    36    1
    72    31    78    1
    73    31    79    1
    74    32    34    1
    75    32    80    1
    76    33    40    1
    77    33    81    1
    78    33    82    1
    79    34    36    1
    80    34    41    1
    81    34    43    1
    82    35    83    1
    83    35    84    1
    84    35    85    1
    85    36    86    1
    86    36    87    1
    87    37    88    1
    88    37    89    1
    89    37    90    1
    90    38    40    1
    91    38    91    1
    92    39    92    1
    93    39    93    1
    94    39    94    1
    95    40    95    1
    96    40    96    1
    97    41    45    1
    98    41    97    1
    99    41    98    1
   100    42    99    1
   101    42   100    1
   102    43   101    1
   103    43   102    1
   104    44   103    1
   105    44   104    1
   106    44   105    1
   107    45    46    1
   108    45   107    1
   109    45   108    1
   110    46    48    1
   111    46   109    1
   112    47    49    1
   113    47   110    1
   114    48    50    1
   115    48    51    1
   116    48   112    1
   117    49    52    1
   118    49   113    1
   119    50   114    1
   120    50   115    1
   121    51   116    1
   122    51   117    1
   123    51   118    1
   124    52    54    1
   125    52   119    1
   126    53    54    1
   127    53    55    1
   128    53   120    1
   129    54   121    1
   130    55   122    1
   131    55   123    1
   132    56    58    1
   133    56   124    1
   134    57    59    1
   135    57   127    1
   136    58    60    1
   137    58   128    1
   138    59    62    1
   139    59   129    1
   140    60    63    1
   141    60   131    1
   142    61    63    1
   143    61   132    1
   144    61   133    1
   145    62    65    1
   146    62   134    1
   147    63   135    1
   148    64    65    1
   149    64    66    1
   150    64   136    1
   151    65   137    1
   152    66   141    1
   153    66   142    1
