@<TRIPOS>MOLECULE
IMPHY016238
 26 25 0 0 0
SMALL
GASTEIGER

@<TRIPOS>ATOM
      1 O           6.3301    0.7500    0.0000 O.3     1  UNL1       -0.4618
      2 O           7.1962   -0.7500    0.0000 O.2     1  UNL1       -0.2512
      3 C           4.5981    0.7500    0.0000 C.3     1  UNL1       -0.0159
      4 C           3.7320    0.2500    0.0000 C.3     1  UNL1       -0.0500
      5 C           5.4641    0.2500    0.0000 C.3     1  UNL1        0.1003
      6 C           2.8660    0.7500    0.0000 C.3     1  UNL1       -0.0558
      7 C           5.4641   -0.7500    0.0000 C.3     1  UNL1       -0.0277
      8 C           2.0000    0.2500    0.0000 C.3     1  UNL1       -0.0653
      9 C           7.1962    0.2500    0.0000 C.2     1  UNL1        0.3042
     10 C           8.0622    0.7500    0.0000 C.3     1  UNL1        0.0332
     11 H           4.9966    1.2250    0.0000 H       1  UNL1        0.0301
     12 H           4.1996    1.2250    0.0000 H       1  UNL1        0.0301
     13 H           3.3335   -0.2249    0.0000 H       1  UNL1        0.0266
     14 H           4.1306   -0.2249    0.0000 H       1  UNL1        0.0266
     15 H           5.4641    0.8700    0.0000 H       1  UNL1        0.0731
     16 H           3.2646    1.2250    0.0000 H       1  UNL1        0.0263
     17 H           2.4675    1.2250    0.0000 H       1  UNL1        0.0263
     18 H           4.8441   -0.7500    0.0000 H       1  UNL1        0.0265
     19 H           5.4641   -1.3700    0.0000 H       1  UNL1        0.0265
     20 H           6.0841   -0.7500    0.0000 H       1  UNL1        0.0265
     21 H           1.6900    0.7869    0.0000 H       1  UNL1        0.0230
     22 H           1.4631   -0.0600    0.0000 H       1  UNL1        0.0230
     23 H           2.3100   -0.2869    0.0000 H       1  UNL1        0.0230
     24 H           8.3722    0.2131    0.0000 H       1  UNL1        0.0342
     25 H           8.5991    1.0600    0.0000 H       1  UNL1        0.0342
     26 H           7.7522    1.2869    0.0000 H       1  UNL1        0.0342
@<TRIPOS>BOND
     1     1     5    1
     2     1     9    1
     3     2     9    2
     4     3     4    1
     5     3     5    1
     6     3    11    1
     7     3    12    1
     8     4     6    1
     9     4    13    1
    10     4    14    1
    11     5     7    1
    12     5    15    1
    13     6     8    1
    14     6    16    1
    15     6    17    1
    16     7    18    1
    17     7    19    1
    18     7    20    1
    19     8    21    1
    20     8    22    1
    21     8    23    1
    22     9    10    1
    23    10    24    1
    24    10    25    1
    25    10    26    1
