@<TRIPOS>MOLECULE
IMPHY017737
 18 17 0 0 0
SMALL
GASTEIGER

@<TRIPOS>ATOM
      1 O           2.0000    0.1270    0.0000 O.2     1  UNL1       -0.3001
      2 C           3.7320    0.1270    0.0000 C.3     1  UNL1        0.0456
      3 C           3.2320    0.9930    0.0000 C.3     1  UNL1       -0.0493
      4 C           4.2320   -0.7390    0.0000 C.3     1  UNL1       -0.0493
      5 C           4.5981    0.6270    0.0000 C.2     1  UNL1       -0.0299
      6 C           2.8660   -0.3730    0.0000 C.2     1  UNL1        0.1302
      7 C           5.4641    0.1270    0.0000 C.1     1  UNL1       -0.1308
      8 C           6.3301   -0.3730    0.0000 C.2     1  UNL1       -0.0565
      9 H           3.7690    1.3030    0.0000 H       1  UNL1        0.0242
     10 H           2.9220    1.5300    0.0000 H       1  UNL1        0.0242
     11 H           2.6951    0.6830    0.0000 H       1  UNL1        0.0242
     12 H           3.6951   -1.0490    0.0000 H       1  UNL1        0.0242
     13 H           4.5420   -1.2760    0.0000 H       1  UNL1        0.0242
     14 H           4.7690   -0.4290    0.0000 H       1  UNL1        0.0242
     15 H           4.5981    1.2470    0.0000 H       1  UNL1        0.0669
     16 H           2.8660   -0.9930    0.0000 H       1  UNL1        0.1035
     17 H           6.3301   -0.9930    0.0000 H       1  UNL1        0.0622
     18 H           6.8671   -0.0630    0.0000 H       1  UNL1        0.0622
@<TRIPOS>BOND
     1     1     6    2
     2     2     3    1
     3     2     4    1
     4     2     5    1
     5     2     6    1
     6     3     9    1
     7     3    10    1
     8     3    11    1
     9     4    12    1
    10     4    13    1
    11     4    14    1
    12     5     7    2
    13     5    15    1
    14     6    16    1
    15     7     8    2
    16     8    17    1
    17     8    18    1
