@<TRIPOS>MOLECULE
IMPHY009804
 39 38 0 0 0
SMALL
GASTEIGER

@<TRIPOS>ATOM
      1 C           8.0622    0.1900    0.0000 C.3     1  UNL1       -0.0531
      2 C           7.1962    0.6900    0.0000 C.3     1  UNL1       -0.0530
      3 C           8.9282    0.6900    0.0000 C.3     1  UNL1       -0.0531
      4 C           6.3301    0.1900    0.0000 C.3     1  UNL1       -0.0528
      5 C           9.7942    0.1900    0.0000 C.3     1  UNL1       -0.0533
      6 C           5.4641    0.6900    0.0000 C.3     1  UNL1       -0.0496
      7 C          10.6603    0.6900    0.0000 C.3     1  UNL1       -0.0559
      8 C           4.5981    0.1900    0.0000 C.3     1  UNL1       -0.0348
      9 C          11.5263    0.1900    0.0000 C.3     1  UNL1       -0.0653
     10 C           3.7320    0.6900    0.0000 C.2     1  UNL1       -0.0879
     11 C           2.8660    0.1900    0.0000 C.2     1  UNL1       -0.0882
     12 C           2.8660   -0.8100    0.0000 C.3     1  UNL1       -0.0376
     13 C           2.0000   -1.3100    0.0000 C.3     1  UNL1       -0.0618
     14 H           7.6636   -0.2849    0.0000 H       1  UNL1        0.0265
     15 H           8.4607   -0.2849    0.0000 H       1  UNL1        0.0265
     16 H           7.5947    1.1650    0.0000 H       1  UNL1        0.0265
     17 H           6.7976    1.1650    0.0000 H       1  UNL1        0.0265
     18 H           9.3267    1.1650    0.0000 H       1  UNL1        0.0265
     19 H           8.5297    1.1650    0.0000 H       1  UNL1        0.0265
     20 H           5.9316   -0.2849    0.0000 H       1  UNL1        0.0265
     21 H           6.7287   -0.2849    0.0000 H       1  UNL1        0.0265
     22 H           9.3957   -0.2849    0.0000 H       1  UNL1        0.0265
     23 H          10.1928   -0.2849    0.0000 H       1  UNL1        0.0265
     24 H           5.8626    1.1650    0.0000 H       1  UNL1        0.0268
     25 H           5.0656    1.1650    0.0000 H       1  UNL1        0.0268
     26 H          11.0588    1.1650    0.0000 H       1  UNL1        0.0263
     27 H          10.2617    1.1650    0.0000 H       1  UNL1        0.0263
     28 H           4.1996   -0.2849    0.0000 H       1  UNL1        0.0307
     29 H           4.9966   -0.2849    0.0000 H       1  UNL1        0.0307
     30 H          11.2163   -0.3469    0.0000 H       1  UNL1        0.0230
     31 H          12.0632   -0.1200    0.0000 H       1  UNL1        0.0230
     32 H          11.8363    0.7269    0.0000 H       1  UNL1        0.0230
     33 H           3.7320    1.3100    0.0000 H       1  UNL1        0.0569
     34 H           2.3291    0.5000    0.0000 H       1  UNL1        0.0569
     35 H           3.0781   -1.3926    0.0000 H       1  UNL1        0.0305
     36 H           3.4766   -0.7023    0.0000 H       1  UNL1        0.0305
     37 H           1.6900   -0.7731    0.0000 H       1  UNL1        0.0233
     38 H           1.4631   -1.6200    0.0000 H       1  UNL1        0.0233
     39 H           2.3100   -1.8469    0.0000 H       1  UNL1        0.0233
@<TRIPOS>BOND
     1     1     2    1
     2     1     3    1
     3     1    14    1
     4     1    15    1
     5     2     4    1
     6     2    16    1
     7     2    17    1
     8     3     5    1
     9     3    18    1
    10     3    19    1
    11     4     6    1
    12     4    20    1
    13     4    21    1
    14     5     7    1
    15     5    22    1
    16     5    23    1
    17     6     8    1
    18     6    24    1
    19     6    25    1
    20     7     9    1
    21     7    26    1
    22     7    27    1
    23     8    10    1
    24     8    28    1
    25     8    29    1
    26     9    30    1
    27     9    31    1
    28     9    32    1
    29    10    11    2
    30    10    33    1
    31    11    12    1
    32    11    34    1
    33    12    13    1
    34    12    35    1
    35    12    36    1
    36    13    37    1
    37    13    38    1
    38    13    39    1
