@<TRIPOS>MOLECULE
IMPHY007930
 53 55 0 0 0
SMALL
GASTEIGER

@<TRIPOS>ATOM
      1 O           3.5878   -2.7849    0.0000 O.3     1  UNL1       -0.4283
      2 O           4.8479   -1.5248    0.0000 O.2     1  UNL1       -0.2452
      3 O           2.0000   -3.5939    0.0000 O.3     1  UNL1       -0.3545
      4 C           4.8198    1.7539    0.0000 C.3     1  UNL1       -0.0222
      5 C           4.8198    2.7539    0.0000 C.3     1  UNL1       -0.0296
      6 C           5.7138    3.2886    0.0000 C.3     1  UNL1       -0.0315
      7 C           3.9538    1.2539    0.0000 C.3     1  UNL1       -0.0142
      8 C           5.7138    1.2193    0.0000 C.3     1  UNL1       -0.0468
      9 C           3.9538    3.2539    0.0000 C.3     1  UNL1       -0.0455
     10 C           6.6198    2.7747    0.0000 C.3     1  UNL1       -0.0476
     11 C           6.6198    1.7331    0.0000 C.3     1  UNL1       -0.0520
     12 C           4.8198    0.7539    0.0000 C.3     1  UNL1       -0.0587
     13 C           3.0878    2.7539    0.0000 C.3     1  UNL1       -0.0314
     14 C           3.0878    1.7539    0.0000 C.2     1  UNL1       -0.0730
     15 C           3.9538    0.2539    0.0000 C.3     1  UNL1       -0.0418
     16 C           6.2037    4.1603    0.0000 C.3     1  UNL1       -0.0595
     17 C           5.2038    4.1488    0.0000 C.3     1  UNL1       -0.0595
     18 C           3.0878   -0.2461    0.0000 C.3     1  UNL1       -0.0205
     19 C           2.2218    1.2539    0.0000 C.2     1  UNL1       -0.0992
     20 C           3.0878   -1.2461    0.0000 C.2     1  UNL1        0.0386
     21 C           2.2788   -1.8339    0.0000 C.2     1  UNL1       -0.0066
     22 C           3.8968   -1.8339    0.0000 C.2     1  UNL1        0.3374
     23 C           2.5878   -2.7849    0.0000 C.3     1  UNL1        0.2232
     24 H           4.8133    3.6039    0.0000 H       1  UNL1        0.0311
     25 H           3.4169    0.9439    0.0000 H       1  UNL1        0.0351
     26 H           5.3092    0.7495    0.0000 H       1  UNL1        0.0271
     27 H           6.1074    0.7402    0.0000 H       1  UNL1        0.0271
     28 H           4.3523    3.7289    0.0000 H       1  UNL1        0.0271
     29 H           3.5553    3.7289    0.0000 H       1  UNL1        0.0271
     30 H           7.2307    2.6686    0.0000 H       1  UNL1        0.0271
     31 H           6.8289    3.3584    0.0000 H       1  UNL1        0.0271
     32 H           6.8289    1.1494    0.0000 H       1  UNL1        0.0266
     33 H           7.2307    1.8392    0.0000 H       1  UNL1        0.0266
     34 H           4.1998    0.7539    0.0000 H       1  UNL1        0.0235
     35 H           4.8198    0.1339    0.0000 H       1  UNL1        0.0235
     36 H           5.4398    0.7539    0.0000 H       1  UNL1        0.0235
     37 H           2.8757    3.3365    0.0000 H       1  UNL1        0.0310
     38 H           2.4772    2.6463    0.0000 H       1  UNL1        0.0310
     39 H           4.1659   -0.3287    0.0000 H       1  UNL1        0.0274
     40 H           4.5644    0.3616    0.0000 H       1  UNL1        0.0274
     41 H           6.7442    3.8566    0.0000 H       1  UNL1        0.0235
     42 H           6.5075    4.7008    0.0000 H       1  UNL1        0.0235
     43 H           5.6632    4.4641    0.0000 H       1  UNL1        0.0235
     44 H           5.7371    4.4650    0.0000 H       1  UNL1        0.0235
     45 H           4.8876    4.6821    0.0000 H       1  UNL1        0.0235
     46 H           4.6705    3.8326    0.0000 H       1  UNL1        0.0235
     47 H           2.8757    0.3365    0.0000 H       1  UNL1        0.0315
     48 H           2.4772   -0.3537    0.0000 H       1  UNL1        0.0315
     49 H           1.6848    1.5639    0.0000 H       1  UNL1        0.0534
     50 H           2.2218    0.6339    0.0000 H       1  UNL1        0.0534
     51 H           1.6891   -1.6423    0.0000 H       1  UNL1        0.0638
     52 H           1.9754   -2.6879    0.0000 H       1  UNL1        0.1105
     53 H           2.2522   -4.1603    0.0000 H       1  UNL1        0.2139
@<TRIPOS>BOND
     1     1    22    1
     2     1    23    1
     3     2    22    2
     4     3    23    1
     5     3    53    1
     6     4     5    1
     7     4     7    1
     8     4     8    1
     9     4    12    1
    10     5     6    1
    11     5     9    1
    12     5    24    1
    13     6    10    1
    14     6    16    1
    15     6    17    1
    16     7    14    1
    17     7    15    1
    18     7    25    1
    19     8    11    1
    20     8    26    1
    21     8    27    1
    22     9    13    1
    23     9    28    1
    24     9    29    1
    25    10    11    1
    26    10    30    1
    27    10    31    1
    28    11    32    1
    29    11    33    1
    30    12    34    1
    31    12    35    1
    32    12    36    1
    33    13    14    1
    34    13    37    1
    35    13    38    1
    36    14    19    2
    37    15    18    1
    38    15    39    1
    39    15    40    1
    40    16    41    1
    41    16    42    1
    42    16    43    1
    43    17    44    1
    44    17    45    1
    45    17    46    1
    46    18    20    1
    47    18    47    1
    48    18    48    1
    49    19    49    1
    50    19    50    1
    51    20    21    2
    52    20    22    1
    53    21    23    1
    54    21    51    1
    55    23    52    1
