@<TRIPOS>MOLECULE
IMPHY005079
 52 56 0 0 0
SMALL
GASTEIGER

@<TRIPOS>ATOM
      1 O           5.4751   -0.9424    0.0000 O.3     1  UNL1       -0.3586
      2 O           4.3009    2.5697    0.0000 O.3     1  UNL1       -0.4606
      3 O           2.7696    3.4323    0.0000 O.2     1  UNL1       -0.2502
      4 O           5.6660   -3.4323    0.0000 O.2     1  UNL1       -0.4965
      5 C           3.8000    0.1453    0.0000 C.3     1  UNL1        0.0045
      6 C           3.8000    1.1453    0.0000 C.3     1  UNL1        0.0196
      7 C           4.6660   -0.3547    0.0000 C.3     1  UNL1        0.0793
      8 C           2.9061    1.6800    0.0000 C.3     1  UNL1        0.0717
      9 C           4.6660    1.6453    0.0000 C.3     1  UNL1        0.1078
     10 C           5.5321    0.1453    0.0000 C.3     1  UNL1       -0.0108
     11 C           2.9061   -0.3893    0.0000 C.3     1  UNL1       -0.0446
     12 C           5.5321    1.1453    0.0000 C.3     1  UNL1       -0.0101
     13 C           3.8570   -0.9424    0.0000 C.3     1  UNL1       -0.0199
     14 C           2.0000    1.1662    0.0000 C.3     1  UNL1       -0.0371
     15 C           2.0000    0.1245    0.0000 C.3     1  UNL1       -0.0515
     16 C           3.3002   -0.7208    0.0000 C.3     1  UNL1       -0.0565
     17 C           5.1660   -1.8935    0.0000 C.3     1  UNL1        0.1252
     18 C           4.1660   -1.8935    0.0000 C.3     1  UNL1       -0.0141
     19 C           3.3073    2.5892    0.0000 C.2     1  UNL1        0.3137
     20 C           2.4161    2.5518    0.0000 C.3     1  UNL1       -0.0490
     21 C           6.3981   -0.3547    0.0000 C.3     1  UNL1       -0.0597
     22 C           4.8570   -2.8446    0.0000 C.3     1  UNL1        0.1213
     23 C           6.1660   -1.8935    0.0000 C.2     1  UNL1       -0.0150
     24 C           6.4751   -2.8446    0.0000 C.2     1  UNL1        0.0835
     25 H           3.0639    0.7203    0.0000 H       1  UNL1        0.0353
     26 H           5.3097    2.2005    0.0000 H       1  UNL1        0.0737
     27 H           5.5321   -0.4747    0.0000 H       1  UNL1        0.0327
     28 H           2.5124   -0.8683    0.0000 H       1  UNL1        0.0272
     29 H           3.3107   -0.8591    0.0000 H       1  UNL1        0.0272
     30 H           6.1426    1.0377    0.0000 H       1  UNL1        0.0304
     31 H           5.7441    1.7280    0.0000 H       1  UNL1        0.0304
     32 H           3.5470   -0.4055    0.0000 H       1  UNL1        0.0294
     33 H           3.2906   -1.1946    0.0000 H       1  UNL1        0.0294
     34 H           1.7909    1.7498    0.0000 H       1  UNL1        0.0276
     35 H           1.3891    1.0601    0.0000 H       1  UNL1        0.0276
     36 H           1.3891    0.2306    0.0000 H       1  UNL1        0.0266
     37 H           1.7909   -0.4592    0.0000 H       1  UNL1        0.0266
     38 H           2.7632   -0.4108    0.0000 H       1  UNL1        0.0236
     39 H           2.9902   -1.2578    0.0000 H       1  UNL1        0.0236
     40 H           3.8371   -1.0307    0.0000 H       1  UNL1        0.0236
     41 H           3.5596   -2.0224    0.0000 H       1  UNL1        0.0298
     42 H           4.2308   -2.5101    0.0000 H       1  UNL1        0.0298
     43 H           2.9566    2.8555    0.0000 H       1  UNL1        0.0240
     44 H           2.1123    3.0922    0.0000 H       1  UNL1        0.0240
     45 H           1.8756    2.2480    0.0000 H       1  UNL1        0.0240
     46 H           6.0881   -0.8916    0.0000 H       1  UNL1        0.0233
     47 H           6.9350   -0.6647    0.0000 H       1  UNL1        0.0233
     48 H           6.7081    0.1823    0.0000 H       1  UNL1        0.0233
     49 H           4.2906   -2.5924    0.0000 H       1  UNL1        0.0729
     50 H           4.5470   -3.3815    0.0000 H       1  UNL1        0.0729
     51 H           6.5305   -1.3919    0.0000 H       1  UNL1        0.0632
     52 H           7.0647   -3.0361    0.0000 H       1  UNL1        0.1021
@<TRIPOS>BOND
     1     7     1    1
     2    17     1    1
     3     2     9    1
     4     2    19    1
     5     3    19    2
     6     4    22    1
     7     4    24    1
     8     5     6    1
     9     5     7    1
    10     5    11    1
    11     5    16    1
    12     6     8    1
    13     6     9    1
    14     6    25    1
    15     7    10    1
    16     7    13    1
    17     8    14    1
    18     8    19    1
    19     8    20    1
    20     9    12    1
    21     9    26    1
    22    10    12    1
    23    10    21    1
    24    10    27    1
    25    11    15    1
    26    11    28    1
    27    11    29    1
    28    12    30    1
    29    12    31    1
    30    13    18    1
    31    13    32    1
    32    13    33    1
    33    14    15    1
    34    14    34    1
    35    14    35    1
    36    15    36    1
    37    15    37    1
    38    16    38    1
    39    16    39    1
    40    16    40    1
    41    17    18    1
    42    17    22    1
    43    17    23    1
    44    18    41    1
    45    18    42    1
    46    20    43    1
    47    20    44    1
    48    20    45    1
    49    21    46    1
    50    21    47    1
    51    21    48    1
    52    22    49    1
    53    22    50    1
    54    23    24    2
    55    23    51    1
    56    24    52    1
