@<TRIPOS>MOLECULE
IMPHY006867
 136 143 0 0 0
SMALL
GASTEIGER

@<TRIPOS>ATOM
      1 O           7.8830   -4.0965    0.0000 O.2     1  UNL1       -0.2971
      2 O           5.8463   -0.9027    0.0000 O.3     1  UNL1       -0.3454
      3 O          15.4047   -2.1377    0.0000 O.3     1  UNL1       -0.3475
      4 O          17.1368   -2.1377    0.0000 O.3     1  UNL1       -0.3199
      5 O           4.5616    0.2590    0.0000 O.3     1  UNL1       -0.3405
      6 O           7.1877    0.5807    0.0000 O.3     1  UNL1       -0.3378
      7 O           6.5737    2.4842    0.0000 O.3     1  UNL1       -0.3864
      8 O          18.0028   -0.6377    0.0000 O.3     1  UNL1       -0.3430
      9 O           4.6183    2.9042    0.0000 O.3     1  UNL1       -0.3865
     10 O           7.5514    2.2742    0.0000 O.3     1  UNL1       -0.3431
     11 O          15.4047   -1.1377    0.0000 O.3     1  UNL1       -0.3841
     12 O           2.6062    0.6790    0.0000 O.3     1  UNL1       -0.3924
     13 O          15.4047    0.8623    0.0000 O.3     1  UNL1       -0.3864
     14 O          17.1368    1.8623    0.0000 O.3     1  UNL1       -0.3866
     15 O           9.1431    0.1608    0.0000 O.3     1  UNL1       -0.3841
     16 O          10.4845    1.6442    0.0000 O.3     1  UNL1       -0.3864
     17 O           9.8705    3.5476    0.0000 O.3     1  UNL1       -0.3866
     18 C          11.8988   -2.2326    0.0000 C.3     1  UNL1       -0.0258
     19 C          11.2310   -2.9769    0.0000 C.3     1  UNL1       -0.0319
     20 C          10.2525   -2.7707    0.0000 C.3     1  UNL1       -0.0277
     21 C           9.9418   -1.8201    0.0000 C.3     1  UNL1       -0.0315
     22 C           8.9260   -1.5896    0.0000 C.3     1  UNL1       -0.0193
     23 C          12.8066   -2.6377    0.0000 C.3     1  UNL1       -0.0304
     24 C          11.5882   -1.2821    0.0000 C.3     1  UNL1       -0.0468
     25 C          10.6097   -1.0758    0.0000 C.3     1  UNL1       -0.0489
     26 C          11.7318   -3.8356    0.0000 C.3     1  UNL1       -0.0492
     27 C          12.7036   -3.6264    0.0000 C.3     1  UNL1       -0.0491
     28 C           8.2244   -2.3596    0.0000 C.3     1  UNL1        0.0255
     29 C           9.5689   -3.5566    0.0000 C.3     1  UNL1        0.0095
     30 C          13.6727   -2.1377    0.0000 C.3     1  UNL1       -0.0141
     31 C           8.6129   -0.5508    0.0000 C.3     1  UNL1       -0.0444
     32 C          12.5667   -1.4883    0.0000 C.3     1  UNL1       -0.0590
     33 C           8.5480   -3.3496    0.0000 C.2     1  UNL1        0.1373
     34 C           7.1610   -2.1440    0.0000 C.3     1  UNL1       -0.0165
     35 C           9.5996   -0.8505    0.0000 C.3     1  UNL1       -0.0587
     36 C           7.5548   -0.3107    0.0000 C.3     1  UNL1       -0.0260
     37 C           6.8240   -1.1127    0.0000 C.3     1  UNL1        0.0625
     38 C          14.5387   -2.6377    0.0000 C.3     1  UNL1        0.0645
     39 C          13.6727   -1.1377    0.0000 C.3     1  UNL1       -0.0598
     40 C          14.5387   -3.6377    0.0000 C.3     1  UNL1       -0.0258
     41 C          15.4047   -4.1377    0.0000 C.3     1  UNL1       -0.0435
     42 C          16.2707   -2.6377    0.0000 C.3     1  UNL1        0.1651
     43 C          16.2707   -3.6377    0.0000 C.3     1  UNL1        0.0076
     44 C           5.5393    0.0490    0.0000 C.3     1  UNL1        0.1886
     45 C           6.2100    0.7907    0.0000 C.3     1  UNL1        0.1406
     46 C          17.1368   -4.1377    0.0000 C.3     1  UNL1       -0.0578
     47 C           5.9030    1.7424    0.0000 C.3     1  UNL1        0.1144
     48 C           4.2546    1.2107    0.0000 C.3     1  UNL1        0.1130
     49 C           4.9253    1.9524    0.0000 C.3     1  UNL1        0.1119
     50 C          17.1368   -1.1377    0.0000 C.3     1  UNL1        0.1907
     51 C          16.2707   -0.6377    0.0000 C.3     1  UNL1        0.1342
     52 C           3.2769    1.4207    0.0000 C.3     1  UNL1        0.0730
     53 C           7.8584    1.3225    0.0000 C.3     1  UNL1        0.1884
     54 C          16.2707    0.3623    0.0000 C.3     1  UNL1        0.1140
     55 C          18.0028    0.3623    0.0000 C.3     1  UNL1        0.0873
     56 C          17.1368    0.8623    0.0000 C.3     1  UNL1        0.1095
     57 C           8.8361    1.1125    0.0000 C.3     1  UNL1        0.1341
     58 C           9.5068    1.8542    0.0000 C.3     1  UNL1        0.1140
     59 C           8.2221    3.0159    0.0000 C.3     1  UNL1        0.0873
     60 C          18.8688    0.8623    0.0000 C.3     1  UNL1       -0.0361
     61 C           9.1998    2.8059    0.0000 C.3     1  UNL1        0.1095
     62 C           7.9151    3.9676    0.0000 C.3     1  UNL1       -0.0361
     63 H          10.7335   -3.6661    0.0000 H       1  UNL1        0.0309
     64 H          10.5228   -3.5766    0.0000 H       1  UNL1        0.0310
     65 H          10.7736   -1.9954    0.0000 H       1  UNL1        0.0309
     66 H          13.5197   -3.1003    0.0000 H       1  UNL1        0.0310
     67 H          12.2020   -1.1947    0.0000 H       1  UNL1        0.0271
     68 H          11.6087   -0.6624    0.0000 H       1  UNL1        0.0271
     69 H          10.8409   -0.5006    0.0000 H       1  UNL1        0.0268
     70 H          10.0833   -0.7482    0.0000 H       1  UNL1        0.0268
     71 H          11.1663   -4.0899    0.0000 H       1  UNL1        0.0268
     72 H          11.9252   -4.4247    0.0000 H       1  UNL1        0.0268
     73 H          12.7696   -4.2429    0.0000 H       1  UNL1        0.0268
     74 H          13.3236   -3.6255    0.0000 H       1  UNL1        0.0268
     75 H           7.6592   -2.9944    0.0000 H       1  UNL1        0.0384
     76 H           9.3436   -4.1342    0.0000 H       1  UNL1        0.0345
     77 H          10.0994   -3.8774    0.0000 H       1  UNL1        0.0345
     78 H          14.2096   -1.8277    0.0000 H       1  UNL1        0.0326
     79 H           9.2284   -0.4761    0.0000 H       1  UNL1        0.0272
     80 H           8.6446    0.0684    0.0000 H       1  UNL1        0.0272
     81 H          13.0282   -1.9023    0.0000 H       1  UNL1        0.0235
     82 H          12.9808   -1.0268    0.0000 H       1  UNL1        0.0235
     83 H          12.1052   -1.0742    0.0000 H       1  UNL1        0.0235
     84 H           6.5475   -2.2329    0.0000 H       1  UNL1        0.0297
     85 H           7.1437   -2.7638    0.0000 H       1  UNL1        0.0297
     86 H          10.0578   -1.2681    0.0000 H       1  UNL1        0.0235
     87 H          10.0172   -0.3923    0.0000 H       1  UNL1        0.0235
     88 H           9.1413   -0.4329    0.0000 H       1  UNL1        0.0235
     89 H           7.7934    0.2615    0.0000 H       1  UNL1        0.0290
     90 H           7.0318    0.0223    0.0000 H       1  UNL1        0.0290
     91 H           6.6348   -0.5223    0.0000 H       1  UNL1        0.0597
     92 H          15.2748   -3.0627    0.0000 H       1  UNL1        0.0600
     93 H          14.2927   -1.1377    0.0000 H       1  UNL1        0.0233
     94 H          13.6727   -0.5177    0.0000 H       1  UNL1        0.0233
     95 H          13.0527   -1.1377    0.0000 H       1  UNL1        0.0233
     96 H          13.9281   -3.5300    0.0000 H       1  UNL1        0.0290
     97 H          14.3266   -4.2203    0.0000 H       1  UNL1        0.0290
     98 H          15.0062   -4.6126    0.0000 H       1  UNL1        0.0270
     99 H          15.8032   -4.6126    0.0000 H       1  UNL1        0.0270
    100 H          16.2707   -2.0177    0.0000 H       1  UNL1        0.0913
    101 H          16.2707   -4.2577    0.0000 H       1  UNL1        0.0347
    102 H           5.1234   -0.4109    0.0000 H       1  UNL1        0.0938
    103 H           6.6258    1.2506    0.0000 H       1  UNL1        0.0675
    104 H          16.8268   -4.6746    0.0000 H       1  UNL1        0.0234
    105 H          17.6737   -4.4477    0.0000 H       1  UNL1        0.0234
    106 H          17.4468   -3.6008    0.0000 H       1  UNL1        0.0234
    107 H           5.7127    2.3325    0.0000 H       1  UNL1        0.0648
    108 H           3.8388    0.7508    0.0000 H       1  UNL1        0.0647
    109 H           4.3191    2.0826    0.0000 H       1  UNL1        0.0647
    110 H          16.5998   -1.4477    0.0000 H       1  UNL1        0.0938
    111 H          15.7338   -0.3277    0.0000 H       1  UNL1        0.0671
    112 H           3.5104    1.9951    0.0000 H       1  UNL1        0.0584
    113 H           2.7518    1.7504    0.0000 H       1  UNL1        0.0584
    114 H           8.0487    0.7324    0.0000 H       1  UNL1        0.0938
    115 H           6.3834    3.0742    0.0000 H       1  UNL1        0.2100
    116 H          16.2707    0.9823    0.0000 H       1  UNL1        0.0648
    117 H           4.0121    3.0343    0.0000 H       1  UNL1        0.2100
    118 H          18.5397    0.0523    0.0000 H       1  UNL1        0.0621
    119 H          17.6737    1.1723    0.0000 H       1  UNL1        0.0646
    120 H           9.4423    0.9823    0.0000 H       1  UNL1        0.0671
    121 H          14.8678   -0.8277    0.0000 H       1  UNL1        0.2101
    122 H           9.9227    2.3141    0.0000 H       1  UNL1        0.0648
    123 H           2.0000    0.8092    0.0000 H       1  UNL1        0.2095
    124 H           7.6159    3.1461    0.0000 H       1  UNL1        0.0621
    125 H           9.0095    3.3960    0.0000 H       1  UNL1        0.0646
    126 H          19.1788    0.3254    0.0000 H       1  UNL1        0.0255
    127 H          19.4057    1.1723    0.0000 H       1  UNL1        0.0255
    128 H          18.5588    1.3992    0.0000 H       1  UNL1        0.0255
    129 H          15.4047    1.4823    0.0000 H       1  UNL1        0.2100
    130 H          17.6737    2.1723    0.0000 H       1  UNL1        0.2100
    131 H           9.7493    0.0306    0.0000 H       1  UNL1        0.2101
    132 H           8.5052    4.1579    0.0000 H       1  UNL1        0.0255
    133 H           7.7248    4.5577    0.0000 H       1  UNL1        0.0255
    134 H           7.3251    3.7773    0.0000 H       1  UNL1        0.0255
    135 H          10.9004    2.1041    0.0000 H       1  UNL1        0.2100
    136 H           9.6802    4.1377    0.0000 H       1  UNL1        0.2100
@<TRIPOS>BOND
     1     1    33    2
     2    37     2    1
     3    44     2    1
     4     3    38    1
     5     3    42    1
     6    42     4    1
     7    50     4    1
     8     5    44    1
     9     5    48    1
    10    45     6    1
    11    53     6    1
    12    47     7    1
    13     7   115    1
    14     8    50    1
    15     8    55    1
    16    49     9    1
    17     9   117    1
    18    10    53    1
    19    10    59    1
    20    51    11    1
    21    11   121    1
    22    12    52    1
    23    12   123    1
    24    54    13    1
    25    13   129    1
    26    56    14    1
    27    14   130    1
    28    57    15    1
    29    15   131    1
    30    58    16    1
    31    16   135    1
    32    61    17    1
    33    17   136    1
    34    18    19    1
    35    18    23    1
    36    18    24    1
    37    18    32    1
    38    19    20    1
    39    19    26    1
    40    19    63    1
    41    20    21    1
    42    20    29    1
    43    20    64    1
    44    21    22    1
    45    21    25    1
    46    21    65    1
    47    22    28    1
    48    22    31    1
    49    22    35    1
    50    23    27    1
    51    23    30    1
    52    23    66    1
    53    24    25    1
    54    24    67    1
    55    24    68    1
    56    25    69    1
    57    25    70    1
    58    26    27    1
    59    26    71    1
    60    26    72    1
    61    27    73    1
    62    27    74    1
    63    28    33    1
    64    28    34    1
    65    28    75    1
    66    29    33    1
    67    29    76    1
    68    29    77    1
    69    30    38    1
    70    30    39    1
    71    30    78    1
    72    31    36    1
    73    31    79    1
    74    31    80    1
    75    32    81    1
    76    32    82    1
    77    32    83    1
    78    34    37    1
    79    34    84    1
    80    34    85    1
    81    35    86    1
    82    35    87    1
    83    35    88    1
    84    36    37    1
    85    36    89    1
    86    36    90    1
    87    37    91    1
    88    38    40    1
    89    38    92    1
    90    39    93    1
    91    39    94    1
    92    39    95    1
    93    40    41    1
    94    40    96    1
    95    40    97    1
    96    41    43    1
    97    41    98    1
    98    41    99    1
    99    42    43    1
   100    42   100    1
   101    43    46    1
   102    43   101    1
   103    44    45    1
   104    44   102    1
   105    45    47    1
   106    45   103    1
   107    46   104    1
   108    46   105    1
   109    46   106    1
   110    47    49    1
   111    47   107    1
   112    48    49    1
   113    48    52    1
   114    48   108    1
   115    49   109    1
   116    50    51    1
   117    50   110    1
   118    51    54    1
   119    51   111    1
   120    52   112    1
   121    52   113    1
   122    53    57    1
   123    53   114    1
   124    54    56    1
   125    54   116    1
   126    55    56    1
   127    55    60    1
   128    55   118    1
   129    56   119    1
   130    57    58    1
   131    57   120    1
   132    58    61    1
   133    58   122    1
   134    59    61    1
   135    59    62    1
   136    59   124    1
   137    60   126    1
   138    60   127    1
   139    60   128    1
   140    61   125    1
   141    62   132    1
   142    62   133    1
   143    62   134    1
