@<TRIPOS>MOLECULE
IMPHY013540
 46 47 0 0 0
SMALL
GASTEIGER

@<TRIPOS>ATOM
      1 O           2.8660    4.0000    0.0000 O.3     1  UNL1       -0.4914
      2 O           2.8660   -4.0000    0.0000 O.3     1  UNL1       -0.4914
      3 O           3.7320    0.5000    0.0000 O.2     1  UNL1       -0.2870
      4 O           3.7320   -0.5000    0.0000 O.2     1  UNL1       -0.2870
      5 O           4.5981    5.0000    0.0000 O.3     1  UNL1       -0.5033
      6 O           4.5981   -5.0000    0.0000 O.3     1  UNL1       -0.5033
      7 C           5.4641    0.5000    0.0000 C.2     1  UNL1        0.0033
      8 C           5.4641   -0.5000    0.0000 C.2     1  UNL1        0.0033
      9 C           4.5981    1.0000    0.0000 C.2     1  UNL1        0.1894
     10 C           4.5981   -1.0000    0.0000 C.2     1  UNL1        0.1894
     11 C           4.5981    2.0000    0.0000 C.ar    1  UNL1        0.0256
     12 C           4.5981   -2.0000    0.0000 C.ar    1  UNL1        0.0256
     13 C           6.3301    1.0000    0.0000 C.3     1  UNL1       -0.0357
     14 C           6.3301   -1.0000    0.0000 C.3     1  UNL1       -0.0357
     15 C           3.7320    2.5000    0.0000 C.ar    1  UNL1       -0.0055
     16 C           3.7320   -2.5000    0.0000 C.ar    1  UNL1       -0.0055
     17 C           5.4641    2.5000    0.0000 C.ar    1  UNL1       -0.0472
     18 C           5.4641   -2.5000    0.0000 C.ar    1  UNL1       -0.0472
     19 C           3.7320    3.5000    0.0000 C.ar    1  UNL1        0.1619
     20 C           3.7320   -3.5000    0.0000 C.ar    1  UNL1        0.1619
     21 C           4.5981    4.0000    0.0000 C.ar    1  UNL1        0.1585
     22 C           4.5981   -4.0000    0.0000 C.ar    1  UNL1        0.1585
     23 C           5.4641    3.5000    0.0000 C.ar    1  UNL1       -0.0159
     24 C           5.4641   -3.5000    0.0000 C.ar    1  UNL1       -0.0159
     25 C           2.8660    5.0000    0.0000 C.3     1  UNL1        0.0790
     26 C           2.0000   -3.5000    0.0000 C.3     1  UNL1        0.0790
     27 H           6.6401    0.4631    0.0000 H       1  UNL1        0.0279
     28 H           6.8671    1.3100    0.0000 H       1  UNL1        0.0279
     29 H           6.0201    1.5369    0.0000 H       1  UNL1        0.0279
     30 H           6.0201   -1.5369    0.0000 H       1  UNL1        0.0279
     31 H           6.8671   -1.3100    0.0000 H       1  UNL1        0.0279
     32 H           6.6401   -0.4631    0.0000 H       1  UNL1        0.0279
     33 H           3.1951    2.1900    0.0000 H       1  UNL1        0.0662
     34 H           3.1951   -2.1900    0.0000 H       1  UNL1        0.0662
     35 H           6.0010    2.1900    0.0000 H       1  UNL1        0.0626
     36 H           6.0010   -2.1900    0.0000 H       1  UNL1        0.0626
     37 H           6.0010    3.8100    0.0000 H       1  UNL1        0.0655
     38 H           6.0010   -3.8100    0.0000 H       1  UNL1        0.0655
     39 H           5.1350    5.3100    0.0000 H       1  UNL1        0.2923
     40 H           5.1350   -5.3100    0.0000 H       1  UNL1        0.2923
     41 H           3.4860    5.0000    0.0000 H       1  UNL1        0.0660
     42 H           2.8660    5.6200    0.0000 H       1  UNL1        0.0660
     43 H           2.2460    5.0000    0.0000 H       1  UNL1        0.0660
     44 H           2.3100   -2.9631    0.0000 H       1  UNL1        0.0660
     45 H           1.4631   -3.1900    0.0000 H       1  UNL1        0.0660
     46 H           1.6900   -4.0369    0.0000 H       1  UNL1        0.0660
@<TRIPOS>BOND
     1     1    19    1
     2     1    25    1
     3     2    20    1
     4     2    26    1
     5     3     9    2
     6     4    10    2
     7     5    21    1
     8     5    39    1
     9     6    22    1
    10     6    40    1
    11     7     8    2
    12     7     9    1
    13     7    13    1
    14     8    10    1
    15     8    14    1
    16     9    11    1
    17    10    12    1
    18    11    15   ar
    19    11    17   ar
    20    12    16   ar
    21    12    18   ar
    22    13    27    1
    23    13    28    1
    24    13    29    1
    25    14    30    1
    26    14    31    1
    27    14    32    1
    28    15    19   ar
    29    15    33    1
    30    16    20   ar
    31    16    34    1
    32    17    23   ar
    33    17    35    1
    34    18    24   ar
    35    18    36    1
    36    19    21   ar
    37    20    22   ar
    38    21    23   ar
    39    22    24   ar
    40    23    37    1
    41    24    38    1
    42    25    41    1
    43    25    42    1
    44    25    43    1
    45    26    44    1
    46    26    45    1
    47    26    46    1
