@<TRIPOS>MOLECULE
IMPHY012239
 39 43 0 0 0
SMALL
GASTEIGER

@<TRIPOS>ATOM
      1 O           3.8368   -3.1895    0.0000 O.3     1  UNL1       -0.3622
      2 O           2.2740   -0.6935    0.0000 O.3     1  UNL1       -0.3647
      3 O           5.4097   -1.9160    0.0000 O.3     1  UNL1       -0.3843
      4 O           7.4594   -0.0340    0.0000 O.3     1  UNL1       -0.4578
      5 O           3.4116    0.9517    0.0000 O.3     1  UNL1       -0.3874
      6 O           7.7006   -1.8660    0.0000 O.2     1  UNL1       -0.2504
      7 C           3.7516   -0.7976    0.0000 C.3     1  UNL1        0.0630
      8 C           2.9699   -1.4116    0.0000 C.3     1  UNL1        0.1317
      9 C           4.5807   -1.3568    0.0000 C.3     1  UNL1        0.1187
     10 C           3.3107   -2.3455    0.0000 C.3     1  UNL1        0.1197
     11 C           4.3042   -2.3116    0.0000 C.3     1  UNL1        0.1182
     12 C           5.8017   -0.4911    0.0000 C.3     1  UNL1        0.0982
     13 C           4.0273    0.1637    0.0000 C.3     1  UNL1        0.1035
     14 C           2.0000   -1.6552    0.0000 C.3     1  UNL1        0.0809
     15 C           6.0605    0.4748    0.0000 C.3     1  UNL1        0.1367
     16 C           5.3239    1.4574    0.0000 C.3     1  UNL1        0.0349
     17 C           2.9226   -0.2384    0.0000 C.3     1  UNL1       -0.0515
     18 C           7.2006   -0.9999    0.0000 C.2     1  UNL1        0.3142
     19 C           4.8239    2.3234    0.0000 C.2     1  UNL1       -0.0722
     20 C           5.3239    3.1895    0.0000 C.3     1  UNL1       -0.0436
     21 C           3.8239    2.3234    0.0000 C.2     1  UNL1       -0.0993
     22 H           2.7534   -2.6172    0.0000 H       1  UNL1        0.0653
     23 H           4.8787   -2.5448    0.0000 H       1  UNL1        0.0652
     24 H           5.5817   -1.3122    0.0000 H       1  UNL1        0.0450
     25 H           3.4187    0.0454    0.0000 H       1  UNL1        0.0638
     26 H           1.3833   -1.5915    0.0000 H       1  UNL1        0.0590
     27 H           2.0443   -2.2737    0.0000 H       1  UNL1        0.0590
     28 H           6.2805    1.2958    0.0000 H       1  UNL1        0.0766
     29 H           5.8413    1.7990    0.0000 H       1  UNL1        0.0391
     30 H           3.2693    0.2756    0.0000 H       1  UNL1        0.0238
     31 H           2.4086    0.1083    0.0000 H       1  UNL1        0.0238
     32 H           2.5759   -0.7524    0.0000 H       1  UNL1        0.0238
     33 H           5.3665   -2.5345    0.0000 H       1  UNL1        0.2103
     34 H           2.7976    0.8654    0.0000 H       1  UNL1        0.2100
     35 H           5.8608    2.8795    0.0000 H       1  UNL1        0.0274
     36 H           5.6339    3.7264    0.0000 H       1  UNL1        0.0274
     37 H           4.7870    3.4995    0.0000 H       1  UNL1        0.0274
     38 H           3.5139    2.8604    0.0000 H       1  UNL1        0.0534
     39 H           3.5139    1.7865    0.0000 H       1  UNL1        0.0534
@<TRIPOS>BOND
     1    10     1    1
     2    11     1    1
     3     8     2    1
     4     2    14    1
     5     9     3    1
     6     3    33    1
     7     4    15    1
     8     4    18    1
     9    13     5    1
    10     5    34    1
    11     6    18    2
    12     7     8    1
    13     7     9    1
    14     7    13    1
    15     7    17    1
    16     8    10    1
    17     8    14    1
    18     9    11    1
    19     9    12    1
    20    10    11    1
    21    10    22    1
    22    11    23    1
    23    12    16    1
    24    12    18    1
    25    12    24    1
    26    13    15    1
    27    13    25    1
    28    14    26    1
    29    14    27    1
    30    15    16    1
    31    15    28    1
    32    16    19    1
    33    16    29    1
    34    17    30    1
    35    17    31    1
    36    17    32    1
    37    19    20    1
    38    19    21    2
    39    20    35    1
    40    20    36    1
    41    20    37    1
    42    21    38    1
    43    21    39    1
