@<TRIPOS>MOLECULE
IMPHY005131
 154 163 0 0 0
SMALL
GASTEIGER

@<TRIPOS>ATOM
      1 O           8.0420    6.4419    0.0000 O.3     1  UNL1       -0.3448
      2 O           9.8145    7.3367    0.0000 O.3     1  UNL1       -0.3480
      3 O           9.4651   -1.8022    0.0000 O.3     1  UNL1       -0.3454
      4 O           7.7331   -1.8022    0.0000 O.3     1  UNL1       -0.3405
      5 O           9.4651   -3.8022    0.0000 O.3     1  UNL1       -0.3604
      6 O           7.7331   -4.8022    0.0000 O.3     1  UNL1       -0.3864
      7 O           6.0010   -3.8022    0.0000 O.3     1  UNL1       -0.3402
      8 O           6.0010   -0.8022    0.0000 O.3     1  UNL1       -0.3924
      9 O          10.1492   -5.6816    0.0000 O.3     1  UNL1       -0.3401
     10 O          10.7507   -2.2701    0.0000 O.3     1  UNL1       -0.3865
     11 O           5.1350   -2.3022    0.0000 O.3     1  UNL1       -0.3461
     12 O          12.1188   -6.0289    0.0000 O.3     1  UNL1       -0.3865
     13 O          12.7203   -2.6174    0.0000 O.3     1  UNL1       -0.3865
     14 O          13.4044   -4.4968    0.0000 O.3     1  UNL1       -0.3865
     15 O           4.2690   -4.8022    0.0000 O.3     1  UNL1       -0.3841
     16 O          11.4760   -6.7949    0.0000 O.3     1  UNL1       -0.3405
     17 O           2.5369   -3.8022    0.0000 O.3     1  UNL1       -0.3864
     18 O           2.5369   -1.8022    0.0000 O.3     1  UNL1       -0.3869
     19 O           8.8636   -7.2137    0.0000 O.3     1  UNL1       -0.3841
     20 O           9.5476   -9.0930    0.0000 O.3     1  UNL1       -0.3864
     21 O          11.5173   -9.4404    0.0000 O.3     1  UNL1       -0.3865
     22 O          13.1449   -8.8480    0.0000 O.3     1  UNL1       -0.3924
     23 C           9.4359    4.3947    0.0000 C.3     1  UNL1       -0.0233
     24 C           8.5679    3.8980    0.0000 C.3     1  UNL1       -0.0298
     25 C           8.5641    2.8980    0.0000 C.3     1  UNL1       -0.0343
     26 C           9.2304    5.3673    0.0000 C.3     1  UNL1       -0.0015
     27 C           9.4282    2.3947    0.0000 C.3     1  UNL1       -0.0323
     28 C           8.2421    5.4742    0.0000 C.3     1  UNL1        0.0660
     29 C           9.4402    1.3531    0.0000 C.3     1  UNL1       -0.0260
     30 C           7.8335    4.5679    0.0000 C.3     1  UNL1       -0.0226
     31 C          10.3000    3.8913    0.0000 C.3     1  UNL1       -0.0467
     32 C          10.2961    2.8914    0.0000 C.3     1  UNL1       -0.0489
     33 C           9.6327    6.2699    0.0000 C.3     1  UNL1        0.0160
     34 C           8.5402    0.8288    0.0000 C.3     1  UNL1       -0.0330
     35 C           7.6521    2.3947    0.0000 C.3     1  UNL1       -0.0494
     36 C           8.8997    6.9327    0.0000 C.3     1  UNL1        0.1732
     37 C           7.6401    1.3531    0.0000 C.3     1  UNL1       -0.0494
     38 C          10.3038    4.8913    0.0000 C.3     1  UNL1       -0.0590
     39 C          10.3901    0.8288    0.0000 C.3     1  UNL1       -0.0448
     40 C           8.5276   -0.2561    0.0000 C.3     1  UNL1       -0.0232
     41 C          10.3043    1.8565    0.0000 C.3     1  UNL1       -0.0590
     42 C          10.4027   -0.2561    0.0000 C.3     1  UNL1       -0.0260
     43 C          10.6111    6.4766    0.0000 C.3     1  UNL1       -0.0572
     44 C           9.4651   -0.8022    0.0000 C.3     1  UNL1        0.0621
     45 C           8.0925    7.5229    0.0000 C.3     1  UNL1        0.0020
     46 C           8.2000    8.5171    0.0000 C.3     1  UNL1       -0.0435
     47 C           9.9220    8.3309    0.0000 C.3     1  UNL1        0.0535
     48 C           9.1148    8.9211    0.0000 C.3     1  UNL1       -0.0201
     49 C           9.2222    9.9153    0.0000 C.3     1  UNL1       -0.0603
     50 C           8.5991   -2.3022    0.0000 C.3     1  UNL1        0.1885
     51 C           8.5991   -3.3022    0.0000 C.3     1  UNL1        0.1381
     52 C           7.7331   -3.8022    0.0000 C.3     1  UNL1        0.1147
     53 C           6.8671   -2.3022    0.0000 C.3     1  UNL1        0.1134
     54 C           6.8671   -3.3022    0.0000 C.3     1  UNL1        0.1184
     55 C          10.4499   -3.9758    0.0000 C.3     1  UNL1        0.1163
     56 C           6.0010   -1.8022    0.0000 C.3     1  UNL1        0.0730
     57 C          10.7920   -4.9155    0.0000 C.3     1  UNL1        0.1186
     58 C          11.0927   -3.2098    0.0000 C.3     1  UNL1        0.1121
     59 C           5.1350   -3.3022    0.0000 C.3     1  UNL1        0.1880
     60 C          11.7768   -5.0892    0.0000 C.3     1  UNL1        0.1122
     61 C          12.0775   -3.3834    0.0000 C.3     1  UNL1        0.1118
     62 C          12.4196   -4.3231    0.0000 C.3     1  UNL1        0.1118
     63 C           4.2690   -3.8022    0.0000 C.3     1  UNL1        0.1341
     64 C           3.4030   -3.3022    0.0000 C.3     1  UNL1        0.1137
     65 C          10.4912   -6.6213    0.0000 C.3     1  UNL1        0.1884
     66 C           4.2690   -1.8022    0.0000 C.3     1  UNL1        0.0792
     67 C           3.4030   -2.3022    0.0000 C.3     1  UNL1        0.1069
     68 C           9.8484   -7.3873    0.0000 C.3     1  UNL1        0.1341
     69 C          10.1904   -8.3270    0.0000 C.3     1  UNL1        0.1141
     70 C          11.8180   -7.7346    0.0000 C.3     1  UNL1        0.1130
     71 C          11.1752   -8.5007    0.0000 C.3     1  UNL1        0.1119
     72 C          12.8028   -7.9083    0.0000 C.3     1  UNL1        0.0730
     73 H           8.0002    3.6488    0.0000 H       1  UNL1        0.0310
     74 H           8.0308    3.2142    0.0000 H       1  UNL1        0.0306
     75 H           9.8470    5.3020    0.0000 H       1  UNL1        0.0335
     76 H           9.9663    2.0868    0.0000 H       1  UNL1        0.0309
     77 H           7.6258    5.5421    0.0000 H       1  UNL1        0.0600
     78 H           7.2982    4.8808    0.0000 H       1  UNL1        0.0293
     79 H           7.4661    4.0685    0.0000 H       1  UNL1        0.0293
     80 H          10.9101    3.7813    0.0000 H       1  UNL1        0.0271
     81 H          10.5143    4.4731    0.0000 H       1  UNL1        0.0271
     82 H          10.5059    2.3079    0.0000 H       1  UNL1        0.0268
     83 H          10.9071    2.9967    0.0000 H       1  UNL1        0.0268
     84 H          10.0225    5.7877    0.0000 H       1  UNL1        0.0354
     85 H           8.0008    0.5230    0.0000 H       1  UNL1        0.0307
     86 H           7.4498    2.9808    0.0000 H       1  UNL1        0.0268
     87 H           7.0401    2.2957    0.0000 H       1  UNL1        0.0268
     88 H           7.0305    1.4663    0.0000 H       1  UNL1        0.0268
     89 H           7.4243    0.7719    0.0000 H       1  UNL1        0.0268
     90 H          10.6118    4.3532    0.0000 H       1  UNL1        0.0235
     91 H          10.8420    5.1993    0.0000 H       1  UNL1        0.0235
     92 H           9.9959    5.4295    0.0000 H       1  UNL1        0.0235
     93 H          11.0022    0.7298    0.0000 H       1  UNL1        0.0271
     94 H          10.5924    1.4149    0.0000 H       1  UNL1        0.0271
     95 H           7.9180   -0.1429    0.0000 H       1  UNL1        0.0293
     96 H           8.3118   -0.8373    0.0000 H       1  UNL1        0.0293
     97 H          10.6164    1.3207    0.0000 H       1  UNL1        0.0235
     98 H          10.8400    2.1685    0.0000 H       1  UNL1        0.0235
     99 H           9.9922    2.3922    0.0000 H       1  UNL1        0.0235
    100 H          10.6185   -0.8373    0.0000 H       1  UNL1        0.0290
    101 H          11.0123   -0.1429    0.0000 H       1  UNL1        0.0290
    102 H          10.7393    5.8700    0.0000 H       1  UNL1        0.0234
    103 H          11.2177    6.6047    0.0000 H       1  UNL1        0.0234
    104 H          10.4830    7.0832    0.0000 H       1  UNL1        0.0234
    105 H          10.0027   -1.1112    0.0000 H       1  UNL1        0.0597
    106 H           7.4970    7.6956    0.0000 H       1  UNL1        0.0317
    107 H           7.8190    6.9664    0.0000 H       1  UNL1        0.0317
    108 H           8.0518    9.1191    0.0000 H       1  UNL1        0.0270
    109 H           7.5814    8.4757    0.0000 H       1  UNL1        0.0270
    110 H          10.5175    8.1582    0.0000 H       1  UNL1        0.0563
    111 H          10.1955    8.8873    0.0000 H       1  UNL1        0.0563
    112 H           8.6142    9.2870    0.0000 H       1  UNL1        0.0320
    113 H           9.8387    9.8486    0.0000 H       1  UNL1        0.0233
    114 H           9.2889   10.5317    0.0000 H       1  UNL1        0.0233
    115 H           8.6058    9.9820    0.0000 H       1  UNL1        0.0233
    116 H           8.5991   -1.6822    0.0000 H       1  UNL1        0.0938
    117 H           8.5991   -3.9222    0.0000 H       1  UNL1        0.0674
    118 H           7.1962   -4.1122    0.0000 H       1  UNL1        0.0648
    119 H           6.8671   -1.6822    0.0000 H       1  UNL1        0.0647
    120 H           6.3301   -2.9922    0.0000 H       1  UNL1        0.0651
    121 H          10.0514   -4.4508    0.0000 H       1  UNL1        0.0650
    122 H           5.3905   -1.6945    0.0000 H       1  UNL1        0.0584
    123 H           5.7890   -2.3848    0.0000 H       1  UNL1        0.0584
    124 H           7.1962   -5.1122    0.0000 H       1  UNL1        0.2100
    125 H          11.0040   -5.4982    0.0000 H       1  UNL1        0.0651
    126 H          11.4913   -2.7348    0.0000 H       1  UNL1        0.0647
    127 H           5.1350   -3.9222    0.0000 H       1  UNL1        0.0937
    128 H          12.3874   -5.1969    0.0000 H       1  UNL1        0.0647
    129 H          12.6881   -3.4911    0.0000 H       1  UNL1        0.0647
    130 H          12.6316   -4.9058    0.0000 H       1  UNL1        0.0647
    131 H           5.4641   -0.4922    0.0000 H       1  UNL1        0.2095
    132 H           3.7320   -4.1122    0.0000 H       1  UNL1        0.0671
    133 H          11.1492   -1.7952    0.0000 H       1  UNL1        0.2100
    134 H           2.8660   -2.9922    0.0000 H       1  UNL1        0.0647
    135 H           9.8806   -6.5136    0.0000 H       1  UNL1        0.0938
    136 H          12.7294   -6.1365    0.0000 H       1  UNL1        0.2100
    137 H          13.3309   -2.7251    0.0000 H       1  UNL1        0.2100
    138 H           4.6675   -1.3272    0.0000 H       1  UNL1        0.0587
    139 H           3.8705   -1.3272    0.0000 H       1  UNL1        0.0587
    140 H          13.6164   -5.0794    0.0000 H       1  UNL1        0.2100
    141 H           3.4030   -1.6822    0.0000 H       1  UNL1        0.0643
    142 H           9.4499   -7.8623    0.0000 H       1  UNL1        0.0671
    143 H           3.7320   -5.1122    0.0000 H       1  UNL1        0.2101
    144 H          10.4025   -8.9096    0.0000 H       1  UNL1        0.0648
    145 H           2.0000   -3.4922    0.0000 H       1  UNL1        0.2100
    146 H          12.2166   -7.2597    0.0000 H       1  UNL1        0.0647
    147 H          11.7858   -8.6083    0.0000 H       1  UNL1        0.0647
    148 H           2.5369   -1.1822    0.0000 H       1  UNL1        0.2100
    149 H           8.4651   -7.6886    0.0000 H       1  UNL1        0.2101
    150 H          13.4134   -7.8006    0.0000 H       1  UNL1        0.0584
    151 H          12.8028   -7.2883    0.0000 H       1  UNL1        0.0584
    152 H           9.7597   -9.6757    0.0000 H       1  UNL1        0.2100
    153 H          11.1187   -9.9153    0.0000 H       1  UNL1        0.2100
    154 H          13.7554   -8.9556    0.0000 H       1  UNL1        0.2095
@<TRIPOS>BOND
     1     1    28    1
     2     1    36    1
     3     2    36    1
     4     2    47    1
     5     3    44    1
     6     3    50    1
     7     4    50    1
     8     4    53    1
     9     5    51    1
    10     5    55    1
    11     6    52    1
    12     6   124    1
    13     7    54    1
    14     7    59    1
    15     8    56    1
    16     8   131    1
    17     9    57    1
    18     9    65    1
    19    10    58    1
    20    10   133    1
    21    11    59    1
    22    11    66    1
    23    12    60    1
    24    12   136    1
    25    13    61    1
    26    13   137    1
    27    14    62    1
    28    14   140    1
    29    15    63    1
    30    15   143    1
    31    16    65    1
    32    16    70    1
    33    17    64    1
    34    17   145    1
    35    18    67    1
    36    18   148    1
    37    19    68    1
    38    19   149    1
    39    20    69    1
    40    20   152    1
    41    21    71    1
    42    21   153    1
    43    22    72    1
    44    22   154    1
    45    23    24    1
    46    23    26    1
    47    23    31    1
    48    23    38    1
    49    24    25    1
    50    24    30    1
    51    24    73    1
    52    25    27    1
    53    25    35    1
    54    25    74    1
    55    26    28    1
    56    26    33    1
    57    26    75    1
    58    27    29    1
    59    27    32    1
    60    27    76    1
    61    28    30    1
    62    28    77    1
    63    29    34    1
    64    29    39    1
    65    29    41    1
    66    30    78    1
    67    30    79    1
    68    31    32    1
    69    31    80    1
    70    31    81    1
    71    32    82    1
    72    32    83    1
    73    33    36    1
    74    33    43    1
    75    33    84    1
    76    34    37    1
    77    34    40    1
    78    34    85    1
    79    35    37    1
    80    35    86    1
    81    35    87    1
    82    36    45    1
    83    37    88    1
    84    37    89    1
    85    38    90    1
    86    38    91    1
    87    38    92    1
    88    39    42    1
    89    39    93    1
    90    39    94    1
    91    40    44    1
    92    40    95    1
    93    40    96    1
    94    41    97    1
    95    41    98    1
    96    41    99    1
    97    42    44    1
    98    42   100    1
    99    42   101    1
   100    43   102    1
   101    43   103    1
   102    43   104    1
   103    44   105    1
   104    45    46    1
   105    45   106    1
   106    45   107    1
   107    46    48    1
   108    46   108    1
   109    46   109    1
   110    47    48    1
   111    47   110    1
   112    47   111    1
   113    48    49    1
   114    48   112    1
   115    49   113    1
   116    49   114    1
   117    49   115    1
   118    50    51    1
   119    50   116    1
   120    51    52    1
   121    51   117    1
   122    52    54    1
   123    52   118    1
   124    53    54    1
   125    53    56    1
   126    53   119    1
   127    54   120    1
   128    55    57    1
   129    55    58    1
   130    55   121    1
   131    56   122    1
   132    56   123    1
   133    57    60    1
   134    57   125    1
   135    58    61    1
   136    58   126    1
   137    59    63    1
   138    59   127    1
   139    60    62    1
   140    60   128    1
   141    61    62    1
   142    61   129    1
   143    62   130    1
   144    63    64    1
   145    63   132    1
   146    64    67    1
   147    64   134    1
   148    65    68    1
   149    65   135    1
   150    66    67    1
   151    66   138    1
   152    66   139    1
   153    67   141    1
   154    68    69    1
   155    68   142    1
   156    69    71    1
   157    69   144    1
   158    70    71    1
   159    70    72    1
   160    70   146    1
   161    71   147    1
   162    72   150    1
   163    72   151    1
