@<TRIPOS>MOLECULE
IMPHY014553
 64 65 0 0 0
SMALL
GASTEIGER

@<TRIPOS>ATOM
      1 O           2.8660   -3.5173    0.0000 O.3     1  UNL1       -0.4568
      2 O           3.7320   -0.0173    0.0000 O.3     1  UNL1       -0.3874
      3 O           7.1962    2.9827    0.0000 O.3     1  UNL1       -0.4843
      4 O           8.9561    3.9480    0.0000 O.2     1  UNL1       -0.4184
      5 O           3.7320   -5.0173    0.0000 O.2     1  UNL1       -0.2511
      6 O          10.7263    3.9585    0.0000 O.2     1  UNL1       -0.2452
      7 C           3.7320   -3.0173    0.0000 C.3     1  UNL1        0.1273
      8 C           3.7320   -2.0173    0.0000 C.2     1  UNL1       -0.0339
      9 C           4.5981   -0.5173    0.0000 C.3     1  UNL1        0.0774
     10 C           5.4641   -0.0173    0.0000 C.3     1  UNL1       -0.0021
     11 C           4.5981   -3.5173    0.0000 C.3     1  UNL1        0.0067
     12 C           4.5981   -1.5173    0.0000 C.2     1  UNL1       -0.0532
     13 C           5.4641    0.9827    0.0000 C.2     1  UNL1       -0.0706
     14 C           2.8660   -1.5173    0.0000 C.3     1  UNL1       -0.0402
     15 C           4.5981   -4.5173    0.0000 C.2     1  UNL1       -0.0815
     16 C           6.3301    1.4827    0.0000 C.2     1  UNL1       -0.0480
     17 C           4.5981    1.4827    0.0000 C.3     1  UNL1       -0.0436
     18 C           5.4641   -5.0173    0.0000 C.2     1  UNL1       -0.0795
     19 C           6.3301    2.4827    0.0000 C.3     1  UNL1        0.1082
     20 C           2.8660   -4.5173    0.0000 C.2     1  UNL1        0.3045
     21 C           5.4641   -6.0173    0.0000 C.3     1  UNL1       -0.0440
     22 C           6.3301   -4.5173    0.0000 C.3     1  UNL1       -0.0440
     23 C           7.1962    3.9827    0.0000 C.ar    1  UNL1        0.1637
     24 C           8.0622    4.4827    0.0000 C.ar    1  UNL1        0.1804
     25 C           8.0622    5.4827    0.0000 C.ar    1  UNL1        0.0213
     26 C           2.0000   -5.0173    0.0000 C.3     1  UNL1        0.0333
     27 C           6.3301    4.4827    0.0000 C.ar    1  UNL1       -0.0162
     28 C           7.1962    5.9827    0.0000 C.ar    1  UNL1       -0.0508
     29 C           6.3301    5.4827    0.0000 C.ar    1  UNL1       -0.0575
     30 C           8.9561    6.0173    0.0000 C.ar    1  UNL1       -0.0442
     31 C           9.8622    5.5035    0.0000 C.ar    1  UNL1        0.0236
     32 C           9.8622    4.4618    0.0000 C.ar    1  UNL1        0.3373
     33 H           3.7320   -3.6373    0.0000 H       1  UNL1        0.0785
     34 H           4.5981    0.1027    0.0000 H       1  UNL1        0.0641
     35 H           5.6762   -0.5999    0.0000 H       1  UNL1        0.0338
     36 H           6.0747    0.0903    0.0000 H       1  UNL1        0.0338
     37 H           5.2087   -3.6250    0.0000 H       1  UNL1        0.0346
     38 H           4.8101   -2.9347    0.0000 H       1  UNL1        0.0346
     39 H           5.1350   -1.8273    0.0000 H       1  UNL1        0.0598
     40 H           3.1760   -0.9804    0.0000 H       1  UNL1        0.0276
     41 H           2.3291   -1.2073    0.0000 H       1  UNL1        0.0276
     42 H           2.5560   -2.0543    0.0000 H       1  UNL1        0.0276
     43 H           4.0611   -4.8273    0.0000 H       1  UNL1        0.0573
     44 H           6.8671    1.1727    0.0000 H       1  UNL1        0.0605
     45 H           4.9081    2.0196    0.0000 H       1  UNL1        0.0274
     46 H           4.0611    1.7927    0.0000 H       1  UNL1        0.0274
     47 H           4.2881    0.9457    0.0000 H       1  UNL1        0.0274
     48 H           3.1951   -0.3273    0.0000 H       1  UNL1        0.2102
     49 H           6.1181    3.0653    0.0000 H       1  UNL1        0.0742
     50 H           5.7196    2.3750    0.0000 H       1  UNL1        0.0742
     51 H           4.8441   -6.0173    0.0000 H       1  UNL1        0.0274
     52 H           5.4641   -6.6373    0.0000 H       1  UNL1        0.0274
     53 H           6.0841   -6.0173    0.0000 H       1  UNL1        0.0274
     54 H           6.6401   -5.0543    0.0000 H       1  UNL1        0.0274
     55 H           6.8671   -4.2073    0.0000 H       1  UNL1        0.0274
     56 H           6.0201   -3.9804    0.0000 H       1  UNL1        0.0274
     57 H           1.6900   -4.4804    0.0000 H       1  UNL1        0.0342
     58 H           1.4631   -5.3273    0.0000 H       1  UNL1        0.0342
     59 H           2.3100   -5.5543    0.0000 H       1  UNL1        0.0342
     60 H           5.7932    4.1727    0.0000 H       1  UNL1        0.0655
     61 H           7.1962    6.6027    0.0000 H       1  UNL1        0.0625
     62 H           5.7932    5.7927    0.0000 H       1  UNL1        0.0619
     63 H           8.9490    6.6373    0.0000 H       1  UNL1        0.0627
     64 H          10.3979    5.8156    0.0000 H       1  UNL1        0.0689
@<TRIPOS>BOND
     1     1     7    1
     2     1    20    1
     3     2     9    1
     4     2    48    1
     5     3    19    1
     6     3    23    1
     7     4    24   ar
     8     4    32   ar
     9     5    20    2
    10     6    32    2
    11     7     8    1
    12     7    11    1
    13     7    33    1
    14     8    12    2
    15     8    14    1
    16     9    10    1
    17     9    12    1
    18     9    34    1
    19    10    13    1
    20    10    35    1
    21    10    36    1
    22    11    15    1
    23    11    37    1
    24    11    38    1
    25    12    39    1
    26    13    16    2
    27    13    17    1
    28    14    40    1
    29    14    41    1
    30    14    42    1
    31    15    18    2
    32    15    43    1
    33    16    19    1
    34    16    44    1
    35    17    45    1
    36    17    46    1
    37    17    47    1
    38    18    21    1
    39    18    22    1
    40    19    49    1
    41    19    50    1
    42    20    26    1
    43    21    51    1
    44    21    52    1
    45    21    53    1
    46    22    54    1
    47    22    55    1
    48    22    56    1
    49    23    24   ar
    50    23    27   ar
    51    24    25   ar
    52    25    28   ar
    53    25    30   ar
    54    26    57    1
    55    26    58    1
    56    26    59    1
    57    27    29   ar
    58    27    60    1
    59    28    29   ar
    60    28    61    1
    61    29    62    1
    62    30    31   ar
    63    30    63    1
    64    31    32   ar
    65    31    64    1
