@<TRIPOS>MOLECULE
IMPHY017482
 41 41 0 0 0
SMALL
GASTEIGER

@<TRIPOS>ATOM
      1 O           2.0000   -3.2594    0.0000 O.2     1  UNL1       -0.2971
      2 O           7.2242    3.0194    0.0000 O.3     1  UNL1       -0.4649
      3 O           5.4921    3.0194    0.0000 O.2     1  UNL1       -0.2509
      4 C           3.7601   -2.9806    0.0000 C.3     1  UNL1        0.0175
      5 C           4.5691   -3.5684    0.0000 C.3     1  UNL1       -0.0431
      6 C           3.7601   -1.9806    0.0000 C.3     1  UNL1       -0.0435
      7 C           4.2601   -4.5194    0.0000 C.3     1  UNL1       -0.0457
      8 C           3.2601   -4.5194    0.0000 C.3     1  UNL1        0.0061
      9 C           2.9511   -3.5684    0.0000 C.2     1  UNL1        0.1364
     10 C           4.6261   -1.4806    0.0000 C.3     1  UNL1       -0.0524
     11 C           4.6261   -0.4806    0.0000 C.3     1  UNL1       -0.0530
     12 C           5.4921    0.0194    0.0000 C.3     1  UNL1       -0.0526
     13 C           5.4921    1.0194    0.0000 C.3     1  UNL1       -0.0430
     14 C           6.3582    1.5194    0.0000 C.3     1  UNL1        0.0449
     15 C           6.3582    2.5194    0.0000 C.2     1  UNL1        0.3071
     16 C           7.2242    4.0194    0.0000 C.3     1  UNL1        0.0896
     17 C           8.0902    4.5194    0.0000 C.3     1  UNL1       -0.0306
     18 H           4.3125   -2.6991    0.0000 H       1  UNL1        0.0377
     19 H           5.1355   -3.8205    0.0000 H       1  UNL1        0.0272
     20 H           4.8791   -3.0314    0.0000 H       1  UNL1        0.0272
     21 H           3.5480   -1.3980    0.0000 H       1  UNL1        0.0272
     22 H           3.1495   -2.0882    0.0000 H       1  UNL1        0.0272
     23 H           4.1953   -5.1360    0.0000 H       1  UNL1        0.0269
     24 H           4.8665   -4.6483    0.0000 H       1  UNL1        0.0269
     25 H           2.6536   -4.6483    0.0000 H       1  UNL1        0.0342
     26 H           3.3249   -5.1360    0.0000 H       1  UNL1        0.0342
     27 H           4.8382   -2.0632    0.0000 H       1  UNL1        0.0265
     28 H           5.2367   -1.3729    0.0000 H       1  UNL1        0.0265
     29 H           4.4140    0.1020    0.0000 H       1  UNL1        0.0265
     30 H           4.0155   -0.5882    0.0000 H       1  UNL1        0.0265
     31 H           5.7042   -0.5632    0.0000 H       1  UNL1        0.0265
     32 H           6.1027    0.1271    0.0000 H       1  UNL1        0.0265
     33 H           5.2801    1.6020    0.0000 H       1  UNL1        0.0270
     34 H           4.8815    0.9118    0.0000 H       1  UNL1        0.0270
     35 H           6.5702    0.9368    0.0000 H       1  UNL1        0.0377
     36 H           6.9687    1.6271    0.0000 H       1  UNL1        0.0377
     37 H           7.0121    4.6020    0.0000 H       1  UNL1        0.0694
     38 H           6.6136    3.9118    0.0000 H       1  UNL1        0.0694
     39 H           8.4002    3.9825    0.0000 H       1  UNL1        0.0262
     40 H           8.6271    4.8294    0.0000 H       1  UNL1        0.0262
     41 H           7.7802    5.0564    0.0000 H       1  UNL1        0.0262
@<TRIPOS>BOND
     1     1     9    2
     2     2    15    1
     3     2    16    1
     4     3    15    2
     5     4     5    1
     6     4     6    1
     7     4     9    1
     8     4    18    1
     9     5     7    1
    10     5    19    1
    11     5    20    1
    12     6    10    1
    13     6    21    1
    14     6    22    1
    15     7     8    1
    16     7    23    1
    17     7    24    1
    18     8     9    1
    19     8    25    1
    20     8    26    1
    21    10    11    1
    22    10    27    1
    23    10    28    1
    24    11    12    1
    25    11    29    1
    26    11    30    1
    27    12    13    1
    28    12    31    1
    29    12    32    1
    30    13    14    1
    31    13    33    1
    32    13    34    1
    33    14    15    1
    34    14    35    1
    35    14    36    1
    36    16    17    1
    37    16    37    1
    38    16    38    1
    39    17    39    1
    40    17    40    1
    41    17    41    1
