@<TRIPOS>MOLECULE
IMPHY017161
 28 27 0 0 0
SMALL
GASTEIGER

@<TRIPOS>ATOM
      1 C           3.7320   -0.7500    0.0000 C.3     1  UNL1       -0.0525
      2 C           4.5981   -0.2500    0.0000 C.3     1  UNL1       -0.0422
      3 C           2.8660   -0.2500    0.0000 C.3     1  UNL1       -0.0559
      4 C           5.4641   -0.7500    0.0000 C.3     1  UNL1        0.0091
      5 C           2.0000   -0.7500    0.0000 C.3     1  UNL1       -0.0653
      6 C           8.9282    0.2500    0.0000 C.3     1  UNL1       -0.0450
      7 C           8.0622    0.7500    0.0000 C.3     1  UNL1        0.0089
      8 C           6.3301   -0.2500    0.0000 C.1     1  UNL1       -0.1022
      9 C           7.1962    0.2500    0.0000 C.1     1  UNL1       -0.1022
     10 C           9.7942    0.7500    0.0000 C.3     1  UNL1       -0.0644
     11 H           3.3335   -1.2250    0.0000 H       1  UNL1        0.0265
     12 H           4.1306   -1.2250    0.0000 H       1  UNL1        0.0265
     13 H           4.9966    0.2249    0.0000 H       1  UNL1        0.0274
     14 H           4.1996    0.2249    0.0000 H       1  UNL1        0.0274
     15 H           3.2646    0.2249    0.0000 H       1  UNL1        0.0263
     16 H           2.4675    0.2249    0.0000 H       1  UNL1        0.0263
     17 H           5.0656   -1.2250    0.0000 H       1  UNL1        0.0397
     18 H           5.8626   -1.2250    0.0000 H       1  UNL1        0.0397
     19 H           1.6900   -0.2131    0.0000 H       1  UNL1        0.0230
     20 H           1.4631   -1.0600    0.0000 H       1  UNL1        0.0230
     21 H           2.3100   -1.2869    0.0000 H       1  UNL1        0.0230
     22 H           8.5297   -0.2249    0.0000 H       1  UNL1        0.0272
     23 H           9.3267   -0.2249    0.0000 H       1  UNL1        0.0272
     24 H           8.4607    1.2250    0.0000 H       1  UNL1        0.0397
     25 H           7.6636    1.2250    0.0000 H       1  UNL1        0.0397
     26 H          10.1042    0.2131    0.0000 H       1  UNL1        0.0230
     27 H          10.3312    1.0600    0.0000 H       1  UNL1        0.0230
     28 H           9.4842    1.2869    0.0000 H       1  UNL1        0.0230
@<TRIPOS>BOND
     1     1     2    1
     2     1     3    1
     3     1    11    1
     4     1    12    1
     5     2     4    1
     6     2    13    1
     7     2    14    1
     8     3     5    1
     9     3    15    1
    10     3    16    1
    11     4     8    1
    12     4    17    1
    13     4    18    1
    14     5    19    1
    15     5    20    1
    16     5    21    1
    17     6     7    1
    18     6    10    1
    19     6    22    1
    20     6    23    1
    21     7     9    1
    22     7    24    1
    23     7    25    1
    24     8     9    3
    25    10    26    1
    26    10    27    1
    27    10    28    1
