@<TRIPOS>MOLECULE
IMPHY006207
 44 46 0 0 0
SMALL
GASTEIGER

@<TRIPOS>ATOM
      1 O           2.0000    1.0000    0.0000 O.2     1  UNL1       -0.2706
      2 O           8.1424   -1.6953    0.0000 O.3     1  UNL1       -0.4526
      3 O           8.1424   -3.3047    0.0000 O.3     1  UNL1       -0.4525
      4 O           4.5981   -3.5000    0.0000 O.3     1  UNL1       -0.4944
      5 N           2.8660    2.5000    0.0000 N.am    1  UNL1       -0.2980
      6 C           2.8660    4.5000    0.0000 C.3     1  UNL1       -0.0502
      7 C           2.0000    4.0000    0.0000 C.3     1  UNL1       -0.0371
      8 C           3.7320    4.0000    0.0000 C.3     1  UNL1       -0.0371
      9 C           3.7320    3.0000    0.0000 C.3     1  UNL1        0.0150
     10 C           2.0000    3.0000    0.0000 C.3     1  UNL1        0.0150
     11 C           2.8660    1.5000    0.0000 C.2     1  UNL1        0.2394
     12 C           3.7320    1.0000    0.0000 C.2     1  UNL1        0.0003
     13 C           3.7320    0.0000    0.0000 C.2     1  UNL1       -0.0568
     14 C           5.4641   -2.0000    0.0000 C.ar    1  UNL1        0.0203
     15 C           7.1962   -2.0000    0.0000 C.ar    1  UNL1        0.1670
     16 C           7.1962   -3.0000    0.0000 C.ar    1  UNL1        0.1697
     17 C           5.4641   -3.0000    0.0000 C.ar    1  UNL1        0.1309
     18 C           6.3301   -1.5000    0.0000 C.ar    1  UNL1       -0.0055
     19 C           6.3301   -3.5000    0.0000 C.ar    1  UNL1        0.0261
     20 C           4.5981   -0.5000    0.0000 C.2     1  UNL1       -0.0609
     21 C           4.5981   -1.5000    0.0000 C.2     1  UNL1       -0.0510
     22 C           8.7260   -2.5000    0.0000 C.3     1  UNL1        0.2332
     23 C           4.5981   -4.5000    0.0000 C.3     1  UNL1        0.0788
     24 H           3.2646    4.9750    0.0000 H       1  UNL1        0.0266
     25 H           2.4675    4.9750    0.0000 H       1  UNL1        0.0266
     26 H           1.7880    4.5826    0.0000 H       1  UNL1        0.0280
     27 H           1.3894    3.8923    0.0000 H       1  UNL1        0.0280
     28 H           4.3426    3.8923    0.0000 H       1  UNL1        0.0280
     29 H           3.9441    4.5826    0.0000 H       1  UNL1        0.0280
     30 H           1.3894    3.1077    0.0000 H       1  UNL1        0.0464
     31 H           1.7880    2.4174    0.0000 H       1  UNL1        0.0464
     32 H           3.9441    2.4174    0.0000 H       1  UNL1        0.0464
     33 H           4.3426    3.1077    0.0000 H       1  UNL1        0.0464
     34 H           4.2690    1.3100    0.0000 H       1  UNL1        0.0669
     35 H           3.1951   -0.3100    0.0000 H       1  UNL1        0.0619
     36 H           6.3301   -0.8800    0.0000 H       1  UNL1        0.0662
     37 H           6.3301   -4.1200    0.0000 H       1  UNL1        0.0692
     38 H           4.0611   -1.8100    0.0000 H       1  UNL1        0.0625
     39 H           5.1350   -0.1900    0.0000 H       1  UNL1        0.0618
     40 H           9.1868   -2.9147    0.0000 H       1  UNL1        0.1166
     41 H           9.1868   -2.0853    0.0000 H       1  UNL1        0.1166
     42 H           3.9781   -4.5000    0.0000 H       1  UNL1        0.0660
     43 H           4.5981   -5.1200    0.0000 H       1  UNL1        0.0660
     44 H           5.2181   -4.5000    0.0000 H       1  UNL1        0.0660
@<TRIPOS>BOND
     1     1    11    2
     2     2    15    1
     3     2    22    1
     4     3    16    1
     5     3    22    1
     6     4    17    1
     7     4    23    1
     8     5     9    1
     9     5    10    1
    10     5    11   am
    11     6     7    1
    12     6     8    1
    13     6    24    1
    14     6    25    1
    15     7    10    1
    16     7    26    1
    17     7    27    1
    18     8     9    1
    19     8    28    1
    20     8    29    1
    21     9    32    1
    22     9    33    1
    23    10    30    1
    24    10    31    1
    25    11    12    1
    26    12    13    2
    27    12    34    1
    28    13    20    1
    29    13    35    1
    30    14    17   ar
    31    14    18   ar
    32    14    21    1
    33    15    16   ar
    34    15    18   ar
    35    16    19   ar
    36    17    19   ar
    37    18    36    1
    38    19    37    1
    39    20    21    2
    40    20    39    1
    41    21    38    1
    42    22    40    1
    43    22    41    1
    44    23    42    1
    45    23    43    1
    46    23    44    1
