@<TRIPOS>MOLECULE
IMPHY015321
 23 23 0 0 0
SMALL
GASTEIGER

@<TRIPOS>ATOM
      1 O           3.7320    1.7500    0.0000 O.3     1  UNL1       -0.4950
      2 O           2.0000   -1.2500    0.0000 O.3     1  UNL1       -0.4950
      3 C           4.5981   -0.7500    0.0000 C.ar    1  UNL1       -0.0435
      4 C           3.7320    0.7500    0.0000 C.ar    1  UNL1        0.1238
      5 C           2.8660   -0.7500    0.0000 C.ar    1  UNL1        0.1238
      6 C           3.7320   -1.2500    0.0000 C.ar    1  UNL1       -0.0168
      7 C           4.5981    0.2500    0.0000 C.ar    1  UNL1       -0.0168
      8 C           2.8660    0.2500    0.0000 C.ar    1  UNL1        0.0218
      9 C           5.4641   -1.2500    0.0000 C.3     1  UNL1       -0.0395
     10 C           4.5981    2.2500    0.0000 C.3     1  UNL1        0.0788
     11 C           2.0000   -2.2500    0.0000 C.3     1  UNL1        0.0788
     12 H           3.7320   -1.8700    0.0000 H       1  UNL1        0.0657
     13 H           5.1350    0.5600    0.0000 H       1  UNL1        0.0657
     14 H           2.3291    0.5600    0.0000 H       1  UNL1        0.0691
     15 H           5.1541   -1.7869    0.0000 H       1  UNL1        0.0278
     16 H           6.0010   -1.5600    0.0000 H       1  UNL1        0.0278
     17 H           5.7741   -0.7131    0.0000 H       1  UNL1        0.0278
     18 H           4.9081    1.7131    0.0000 H       1  UNL1        0.0660
     19 H           5.1350    2.5600    0.0000 H       1  UNL1        0.0660
     20 H           4.2881    2.7869    0.0000 H       1  UNL1        0.0660
     21 H           1.3800   -2.2500    0.0000 H       1  UNL1        0.0660
     22 H           2.0000   -2.8700    0.0000 H       1  UNL1        0.0660
     23 H           2.6200   -2.2500    0.0000 H       1  UNL1        0.0660
@<TRIPOS>BOND
     1     1     4    1
     2     1    10    1
     3     2     5    1
     4     2    11    1
     5     3     6   ar
     6     3     7   ar
     7     3     9    1
     8     4     7   ar
     9     4     8   ar
    10     5     6   ar
    11     5     8   ar
    12     6    12    1
    13     7    13    1
    14     8    14    1
    15     9    15    1
    16     9    16    1
    17     9    17    1
    18    10    18    1
    19    10    19    1
    20    10    20    1
    21    11    21    1
    22    11    22    1
    23    11    23    1
