@<TRIPOS>MOLECULE
IMPHY011013
 19 18 0 0 0
SMALL
GASTEIGER

@<TRIPOS>ATOM
      1 O           4.5981    1.2500    0.0000 O.2     1  UNL1       -0.2974
      2 C           3.7320   -0.2500    0.0000 C.3     1  UNL1        0.0142
      3 C           2.8660    0.2500    0.0000 C.3     1  UNL1       -0.0466
      4 C           3.7320   -1.2500    0.0000 C.3     1  UNL1       -0.0557
      5 C           4.5981    0.2500    0.0000 C.2     1  UNL1        0.1331
      6 C           2.0000   -0.2500    0.0000 C.3     1  UNL1       -0.0646
      7 C           5.4641   -0.2500    0.0000 C.3     1  UNL1       -0.0058
      8 H           4.4682   -0.6750    0.0000 H       1  UNL1        0.0374
      9 H           3.2646    0.7249    0.0000 H       1  UNL1        0.0269
     10 H           2.4675    0.7249    0.0000 H       1  UNL1        0.0269
     11 H           3.1120   -1.2500    0.0000 H       1  UNL1        0.0236
     12 H           3.7320   -1.8700    0.0000 H       1  UNL1        0.0236
     13 H           4.3520   -1.2500    0.0000 H       1  UNL1        0.0236
     14 H           1.6900    0.2869    0.0000 H       1  UNL1        0.0230
     15 H           1.4631   -0.5600    0.0000 H       1  UNL1        0.0230
     16 H           2.3100   -0.7869    0.0000 H       1  UNL1        0.0230
     17 H           5.1541   -0.7869    0.0000 H       1  UNL1        0.0306
     18 H           6.0010   -0.5600    0.0000 H       1  UNL1        0.0306
     19 H           5.7741    0.2869    0.0000 H       1  UNL1        0.0306
@<TRIPOS>BOND
     1     1     5    2
     2     2     3    1
     3     2     4    1
     4     2     5    1
     5     2     8    1
     6     3     6    1
     7     3     9    1
     8     3    10    1
     9     4    11    1
    10     4    12    1
    11     4    13    1
    12     5     7    1
    13     6    14    1
    14     6    15    1
    15     6    16    1
    16     7    17    1
    17     7    18    1
    18     7    19    1
