@<TRIPOS>MOLECULE
IMPHY012574
 57 60 0 0 0
SMALL
GASTEIGER

@<TRIPOS>ATOM
      1 O           6.0682    0.9827    0.0000 O.3     1  UNL1       -0.4838
      2 O          10.4263   -0.5520    0.0000 O.3     1  UNL1       -0.4780
      3 O           8.6663   -1.5173    0.0000 O.3     1  UNL1       -0.5031
      4 O           2.5381    0.9585    0.0000 O.3     1  UNL1       -0.5066
      5 C           6.9343    1.4827    0.0000 C.3     1  UNL1        0.1259
      6 C           6.9343    2.4827    0.0000 C.3     1  UNL1       -0.0074
      7 C           7.8003    0.9827    0.0000 C.ar    1  UNL1        0.0004
      8 C           6.0682    2.9827    0.0000 C.3     1  UNL1       -0.0206
      9 C           7.8003   -0.0173    0.0000 C.ar    1  UNL1        0.0081
     10 C           8.6663    1.4827    0.0000 C.ar    1  UNL1       -0.0439
     11 C           9.5323    0.9827    0.0000 C.ar    1  UNL1        0.0206
     12 C           5.2022    2.4827    0.0000 C.ar    1  UNL1       -0.0053
     13 C          11.3324   -0.0381    0.0000 C.3     1  UNL1        0.1237
     14 C           9.5323   -0.0173    0.0000 C.ar    1  UNL1        0.1703
     15 C           8.6663   -0.5173    0.0000 C.ar    1  UNL1        0.1630
     16 C           5.2022    1.4827    0.0000 C.ar    1  UNL1        0.1280
     17 C           6.9343   -0.5173    0.0000 C.3     1  UNL1       -0.0053
     18 C          10.4263    1.5173    0.0000 C.2     1  UNL1       -0.0512
     19 C          11.3324    1.0035    0.0000 C.2     1  UNL1       -0.0409
     20 C          12.3324   -0.0420    0.0000 C.3     1  UNL1       -0.0215
     21 C          11.8290   -0.9061    0.0000 C.3     1  UNL1       -0.0215
     22 C           4.3083    3.0173    0.0000 C.ar    1  UNL1       -0.0517
     23 C           4.3083    0.9480    0.0000 C.ar    1  UNL1        0.0218
     24 C           6.9343   -1.5173    0.0000 C.2     1  UNL1       -0.0809
     25 C           3.4022    2.5035    0.0000 C.ar    1  UNL1       -0.0197
     26 C           3.4022    1.4619    0.0000 C.ar    1  UNL1        0.1203
     27 C           6.0682   -2.0173    0.0000 C.2     1  UNL1       -0.0793
     28 C           6.0682   -3.0173    0.0000 C.3     1  UNL1       -0.0440
     29 C           5.2022   -1.5173    0.0000 C.3     1  UNL1       -0.0440
     30 H           6.9343    0.6327    0.0000 H       1  UNL1        0.0784
     31 H           7.5449    2.3750    0.0000 H       1  UNL1        0.0307
     32 H           7.1463    3.0653    0.0000 H       1  UNL1        0.0307
     33 H           6.4668    3.4576    0.0000 H       1  UNL1        0.0316
     34 H           5.6697    3.4576    0.0000 H       1  UNL1        0.0316
     35 H           8.6663    2.1027    0.0000 H       1  UNL1        0.0629
     36 H           6.7222    0.0653    0.0000 H       1  UNL1        0.0357
     37 H           6.3237   -0.6250    0.0000 H       1  UNL1        0.0357
     38 H          10.4191    2.1373    0.0000 H       1  UNL1        0.0623
     39 H          11.8681    1.3156    0.0000 H       1  UNL1        0.0611
     40 H          12.3300   -0.6620    0.0000 H       1  UNL1        0.0271
     41 H          12.9524   -0.0444    0.0000 H       1  UNL1        0.0271
     42 H          12.3347    0.5780    0.0000 H       1  UNL1        0.0271
     43 H          11.2909   -1.2140    0.0000 H       1  UNL1        0.0271
     44 H          12.1369   -1.4442    0.0000 H       1  UNL1        0.0271
     45 H          12.3671   -0.5982    0.0000 H       1  UNL1        0.0271
     46 H           4.3154    3.6373    0.0000 H       1  UNL1        0.0623
     47 H           4.3154    0.3280    0.0000 H       1  UNL1        0.0691
     48 H           7.4712   -1.8273    0.0000 H       1  UNL1        0.0575
     49 H           2.8665    2.8156    0.0000 H       1  UNL1        0.0654
     50 H           9.2033   -1.8273    0.0000 H       1  UNL1        0.2923
     51 H           5.4482   -3.0173    0.0000 H       1  UNL1        0.0274
     52 H           6.0682   -3.6373    0.0000 H       1  UNL1        0.0274
     53 H           6.6882   -3.0173    0.0000 H       1  UNL1        0.0274
     54 H           5.5122   -0.9804    0.0000 H       1  UNL1        0.0274
     55 H           4.6653   -1.2073    0.0000 H       1  UNL1        0.0274
     56 H           4.8922   -2.0543    0.0000 H       1  UNL1        0.0274
     57 H           2.0000    1.2664    0.0000 H       1  UNL1        0.2921
@<TRIPOS>BOND
     1     1     5    1
     2     1    16    1
     3     2    13    1
     4     2    14    1
     5     3    15    1
     6     3    50    1
     7     4    26    1
     8     4    57    1
     9     5     6    1
    10     5     7    1
    11     5    30    1
    12     6     8    1
    13     6    31    1
    14     6    32    1
    15     7     9   ar
    16     7    10   ar
    17     8    12    1
    18     8    33    1
    19     8    34    1
    20     9    15   ar
    21     9    17    1
    22    10    11   ar
    23    10    35    1
    24    11    14   ar
    25    11    18    1
    26    12    16   ar
    27    12    22   ar
    28    13    19    1
    29    13    20    1
    30    13    21    1
    31    14    15   ar
    32    16    23   ar
    33    17    24    1
    34    17    36    1
    35    17    37    1
    36    18    19    2
    37    18    38    1
    38    19    39    1
    39    20    40    1
    40    20    41    1
    41    20    42    1
    42    21    43    1
    43    21    44    1
    44    21    45    1
    45    22    25   ar
    46    22    46    1
    47    23    26   ar
    48    23    47    1
    49    24    27    2
    50    24    48    1
    51    25    26   ar
    52    25    49    1
    53    27    28    1
    54    27    29    1
    55    28    51    1
    56    28    52    1
    57    28    53    1
    58    29    54    1
    59    29    55    1
    60    29    56    1
