@<TRIPOS>MOLECULE
IMPHY012211
 52 56 0 0 0
SMALL
GASTEIGER

@<TRIPOS>ATOM
      1 O           4.7340   -0.6444    0.0000 O.3     1  UNL1       -0.4806
      2 O           5.6521    1.9040    0.0000 O.3     1  UNL1       -0.4877
      3 O           2.8832    1.0292    0.0000 O.3     1  UNL1       -0.3728
      4 O           3.2118   -3.7242    0.0000 O.3     1  UNL1       -0.4838
      5 O           2.1360    0.8556    0.0000 O.2     1  UNL1       -0.2883
      6 O           2.0116    3.9925    0.0000 O.3     1  UNL1       -0.4914
      7 O           3.8149    5.0523    0.0000 O.3     1  UNL1       -0.4913
      8 C           3.8680    0.8556    0.0000 C.3     1  UNL1        0.1968
      9 C           4.7340    0.3556    0.0000 C.3     1  UNL1        0.1739
     10 C           3.8520    1.8971    0.0000 C.ar    1  UNL1        0.0405
     11 C           3.0020    0.3556    0.0000 C.2     1  UNL1        0.2063
     12 C           3.8680   -1.1444    0.0000 C.ar    1  UNL1        0.1386
     13 C           5.6440    0.8624    0.0000 C.3     1  UNL1        0.1299
     14 C           3.0020   -0.6444    0.0000 C.ar    1  UNL1        0.0629
     15 C           3.8841   -2.1859    0.0000 C.ar    1  UNL1        0.0404
     16 C           4.6571   -2.8748    0.0000 C.3     1  UNL1        0.0204
     17 C           4.7500    2.4248    0.0000 C.ar    1  UNL1        0.1308
     18 C           4.2424   -3.8236    0.0000 C.3     1  UNL1        0.1249
     19 C           2.9860   -2.7137    0.0000 C.ar    1  UNL1        0.1282
     20 C           2.0920   -1.1513    0.0000 C.ar    1  UNL1       -0.0442
     21 C           2.9000    2.4177    0.0000 C.ar    1  UNL1       -0.0064
     22 C           2.0840   -2.1929    0.0000 C.ar    1  UNL1       -0.0187
     23 C           4.7584    3.5098    0.0000 C.ar    1  UNL1        0.0258
     24 C           4.7491   -4.6858    0.0000 C.2     1  UNL1       -0.0395
     25 C           2.8833    3.5026    0.0000 C.ar    1  UNL1        0.1621
     26 C           3.8187    4.0523    0.0000 C.ar    1  UNL1        0.1650
     27 C           4.2558   -5.5556    0.0000 C.3     1  UNL1       -0.0406
     28 C           5.7491   -4.6781    0.0000 C.2     1  UNL1       -0.0962
     29 C           2.0000    4.9925    0.0000 C.3     1  UNL1        0.0790
     30 C           4.6790    5.5556    0.0000 C.3     1  UNL1        0.0790
     31 H           5.4669   -0.0751    0.0000 H       1  UNL1        0.0805
     32 H           5.8486    0.2771    0.0000 H       1  UNL1        0.0735
     33 H           6.2557    0.9638    0.0000 H       1  UNL1        0.0735
     34 H           5.1960   -3.1815    0.0000 H       1  UNL1        0.0355
     35 H           5.0187   -2.3712    0.0000 H       1  UNL1        0.0355
     36 H           3.9090   -4.3464    0.0000 H       1  UNL1        0.0784
     37 H           1.5587   -0.8351    0.0000 H       1  UNL1        0.0627
     38 H           2.3692    2.0974    0.0000 H       1  UNL1        0.0660
     39 H           2.6712    1.6118    0.0000 H       1  UNL1        0.2114
     40 H           1.5458   -2.5008    0.0000 H       1  UNL1        0.0654
     41 H           5.2965    3.8177    0.0000 H       1  UNL1        0.0692
     42 H           3.7165   -5.2498    0.0000 H       1  UNL1        0.0275
     43 H           3.9499   -6.0950    0.0000 H       1  UNL1        0.0275
     44 H           4.7951   -5.8615    0.0000 H       1  UNL1        0.0275
     45 H           6.0632   -5.2126    0.0000 H       1  UNL1        0.0535
     46 H           6.0549   -4.1388    0.0000 H       1  UNL1        0.0535
     47 H           2.6200    4.9996    0.0000 H       1  UNL1        0.0660
     48 H           1.9928    5.6124    0.0000 H       1  UNL1        0.0660
     49 H           1.3800    4.9853    0.0000 H       1  UNL1        0.0660
     50 H           4.9910    5.0199    0.0000 H       1  UNL1        0.0660
     51 H           5.2147    5.8677    0.0000 H       1  UNL1        0.0660
     52 H           4.3669    6.0914    0.0000 H       1  UNL1        0.0660
@<TRIPOS>BOND
     1     1     9    1
     2     1    12    1
     3     2    13    1
     4     2    17    1
     5     8     3    1
     6     3    39    1
     7     4    18    1
     8     4    19    1
     9     5    11    2
    10     6    25    1
    11     6    29    1
    12     7    26    1
    13     7    30    1
    14     8     9    1
    15     8    10    1
    16     8    11    1
    17     9    13    1
    18     9    31    1
    19    10    17   ar
    20    10    21   ar
    21    11    14    1
    22    12    14   ar
    23    12    15   ar
    24    13    32    1
    25    13    33    1
    26    14    20   ar
    27    15    16    1
    28    15    19   ar
    29    16    18    1
    30    16    34    1
    31    16    35    1
    32    17    23   ar
    33    18    24    1
    34    18    36    1
    35    19    22   ar
    36    20    22   ar
    37    20    37    1
    38    21    25   ar
    39    21    38    1
    40    22    40    1
    41    23    26   ar
    42    23    41    1
    43    24    27    1
    44    24    28    2
    45    25    26   ar
    46    27    42    1
    47    27    43    1
    48    27    44    1
    49    28    45    1
    50    28    46    1
    51    29    47    1
    52    29    48    1
    53    29    49    1
    54    30    50    1
    55    30    51    1
    56    30    52    1
