@<TRIPOS>MOLECULE
IMPHY014660
 34 36 0 0 0
SMALL
GASTEIGER

@<TRIPOS>ATOM
      1 O           6.0682   -0.4031    0.0000 O.2     1  UNL1       -0.4536
      2 O           7.8167    2.6315    0.0000 O.3     1  UNL1       -0.5059
      3 O           6.0682    2.5969    0.0000 O.2     1  UNL1       -0.2863
      4 O           2.5381    1.6210    0.0000 O.3     1  UNL1       -0.5067
      5 O           3.4597   -1.9477    0.0000 O.3     1  UNL1       -0.4644
      6 O           5.1916   -1.9277    0.0000 O.2     1  UNL1       -0.2448
      7 C           6.9343    1.0969    0.0000 C.ar    1  UNL1        0.1058
      8 C           5.2022    1.0969    0.0000 C.ar    1  UNL1        0.0690
      9 C           5.2022    0.0969    0.0000 C.ar    1  UNL1        0.1534
     10 C           6.9343    0.0969    0.0000 C.ar    1  UNL1        0.1431
     11 C           6.0682    1.5969    0.0000 C.ar    1  UNL1        0.2038
     12 C           4.3083   -0.4378    0.0000 C.ar    1  UNL1        0.1052
     13 C           7.8282    1.6315    0.0000 C.ar    1  UNL1        0.1315
     14 C           7.8282   -0.4378    0.0000 C.ar    1  UNL1       -0.0155
     15 C           8.7343    0.0760    0.0000 C.ar    1  UNL1       -0.0435
     16 C           4.3083    1.6315    0.0000 C.ar    1  UNL1       -0.0058
     17 C           8.7343    1.1177    0.0000 C.ar    1  UNL1       -0.0163
     18 C           3.4022    0.0760    0.0000 C.ar    1  UNL1       -0.0026
     19 C           3.4022    1.1177    0.0000 C.ar    1  UNL1        0.1186
     20 C           9.5984   -0.4273    0.0000 C.3     1  UNL1       -0.0395
     21 C           4.3198   -1.4377    0.0000 C.2     1  UNL1        0.3426
     22 C           3.4712   -2.9476    0.0000 C.3     1  UNL1        0.0820
     23 H           7.8210   -1.0578    0.0000 H       1  UNL1        0.0657
     24 H           4.3154    2.2515    0.0000 H       1  UNL1        0.0662
     25 H           9.2700    1.4298    0.0000 H       1  UNL1        0.0657
     26 H           2.8665   -0.2360    0.0000 H       1  UNL1        0.0663
     27 H           9.2863   -0.9630    0.0000 H       1  UNL1        0.0278
     28 H          10.1341   -0.7394    0.0000 H       1  UNL1        0.0278
     29 H           9.9105    0.1084    0.0000 H       1  UNL1        0.0278
     30 H           8.3500    2.9476    0.0000 H       1  UNL1        0.2922
     31 H           2.0000    1.3131    0.0000 H       1  UNL1        0.2921
     32 H           2.8513   -2.9548    0.0000 H       1  UNL1        0.0661
     33 H           3.4784   -3.5676    0.0000 H       1  UNL1        0.0661
     34 H           4.0912   -2.9405    0.0000 H       1  UNL1        0.0661
@<TRIPOS>BOND
     1     1     9   ar
     2     1    10   ar
     3     2    13    1
     4     2    30    1
     5     3    11    2
     6     4    19    1
     7     4    31    1
     8     5    21    1
     9     5    22    1
    10     6    21    2
    11     7    10   ar
    12     7    11   ar
    13     7    13   ar
    14     8     9   ar
    15     8    11   ar
    16     8    16   ar
    17     9    12   ar
    18    10    14   ar
    19    12    18   ar
    20    12    21    1
    21    13    17   ar
    22    14    15   ar
    23    14    23    1
    24    15    17   ar
    25    15    20    1
    26    16    19   ar
    27    16    24    1
    28    17    25    1
    29    18    19   ar
    30    18    26    1
    31    20    27    1
    32    20    28    1
    33    20    29    1
    34    22    32    1
    35    22    33    1
    36    22    34    1
