@<TRIPOS>MOLECULE
IMPHY006477
 36 38 0 0 0
SMALL
GASTEIGER

@<TRIPOS>ATOM
      1 O           2.0000   -1.5351    0.0000 O.3     1  UNL1       -0.3564
      2 O           4.5983   -1.0346    0.0000 O.2     1  UNL1       -0.2945
      3 C           2.8663   -1.0346    0.0000 C.3     1  UNL1        0.1541
      4 C           3.7323    0.4654    0.0000 C.3     1  UNL1       -0.0053
      5 C           2.0003   -0.5346    0.0000 C.3     1  UNL1        0.0995
      6 C           3.7323   -0.5346    0.0000 C.3     1  UNL1       -0.0049
      7 C           2.0003    0.4654    0.0000 C.3     1  UNL1       -0.0016
      8 C           2.8663    0.9654    0.0000 C.2     1  UNL1       -0.0646
      9 C           4.6423    0.9722    0.0000 C.3     1  UNL1       -0.0344
     10 C           4.6503    2.0138    0.0000 C.3     1  UNL1       -0.0462
     11 C           4.5983   -0.0346    0.0000 C.3     1  UNL1       -0.0555
     12 C           3.7323   -1.5346    0.0000 C.2     1  UNL1        0.1644
     13 C           2.8502    2.0069    0.0000 C.2     1  UNL1       -0.0841
     14 C           3.7483    2.5346    0.0000 C.3     1  UNL1       -0.0342
     15 C           5.5025    0.4622    0.0000 C.3     1  UNL1       -0.0616
     16 C           3.7323   -2.5346    0.0000 C.3     1  UNL1       -0.0031
     17 H           1.1503   -0.5345    0.0000 H       1  UNL1        0.0633
     18 H           3.9444   -1.1172    0.0000 H       1  UNL1        0.0307
     19 H           4.3429   -0.4270    0.0000 H       1  UNL1        0.0307
     20 H           1.7882    1.0480    0.0000 H       1  UNL1        0.0336
     21 H           1.3897    0.3577    0.0000 H       1  UNL1        0.0336
     22 H           5.1822    1.2770    0.0000 H       1  UNL1        0.0307
     23 H           5.2604    1.9030    0.0000 H       1  UNL1        0.0271
     24 H           4.8639    2.5959    0.0000 H       1  UNL1        0.0271
     25 H           4.2883   -0.5716    0.0000 H       1  UNL1        0.0238
     26 H           5.1353   -0.3446    0.0000 H       1  UNL1        0.0238
     27 H           4.9083    0.5023    0.0000 H       1  UNL1        0.0238
     28 H           2.3097    2.3106    0.0000 H       1  UNL1        0.0572
     29 H           4.1456    3.0106    0.0000 H       1  UNL1        0.0307
     30 H           3.3473    3.0075    0.0000 H       1  UNL1        0.0307
     31 H           5.1863   -0.0711    0.0000 H       1  UNL1        0.0233
     32 H           6.0358    0.1460    0.0000 H       1  UNL1        0.0233
     33 H           5.8187    0.9956    0.0000 H       1  UNL1        0.0233
     34 H           3.1123   -2.5346    0.0000 H       1  UNL1        0.0307
     35 H           3.7323   -3.1546    0.0000 H       1  UNL1        0.0307
     36 H           4.3523   -2.5346    0.0000 H       1  UNL1        0.0307
@<TRIPOS>BOND
     1     1     3    1
     2     1     5    1
     3     2    12    2
     4     3     5    1
     5     3     6    1
     6     3    12    1
     7     4     6    1
     8     4     8    1
     9     4     9    1
    10     4    11    1
    11     5     7    1
    12     5    17    1
    13     6    18    1
    14     6    19    1
    15     7     8    1
    16     7    20    1
    17     7    21    1
    18     8    13    2
    19     9    10    1
    20     9    15    1
    21     9    22    1
    22    10    14    1
    23    10    23    1
    24    10    24    1
    25    11    25    1
    26    11    26    1
    27    11    27    1
    28    12    16    1
    29    13    14    1
    30    13    28    1
    31    14    29    1
    32    14    30    1
    33    15    31    1
    34    15    32    1
    35    15    33    1
    36    16    34    1
    37    16    35    1
    38    16    36    1
