@<TRIPOS>MOLECULE
IMPHY015313
 33 33 0 0 0
SMALL
GASTEIGER

@<TRIPOS>ATOM
      1 O           2.8660   -2.5000    0.0000 O.3     1  UNL1       -0.4914
      2 O           4.5981   -3.5000    0.0000 O.3     1  UNL1       -0.4915
      3 O           6.3301    2.5000    0.0000 O.3     1  UNL1       -0.4606
      4 O           5.4641    4.0000    0.0000 O.2     1  UNL1       -0.2512
      5 C           4.5981   -0.5000    0.0000 C.ar    1  UNL1       -0.0215
      6 C           3.7320   -2.0000    0.0000 C.ar    1  UNL1        0.1620
      7 C           3.7320   -1.0000    0.0000 C.ar    1  UNL1       -0.0092
      8 C           4.5981   -2.5000    0.0000 C.ar    1  UNL1        0.1615
      9 C           5.4641   -1.0000    0.0000 C.ar    1  UNL1       -0.0509
     10 C           5.4641   -2.0000    0.0000 C.ar    1  UNL1       -0.0157
     11 C           4.5981    0.5000    0.0000 C.2     1  UNL1       -0.0552
     12 C           5.4641    1.0000    0.0000 C.2     1  UNL1       -0.0465
     13 C           5.4641    2.0000    0.0000 C.3     1  UNL1        0.1110
     14 C           2.0000   -2.0000    0.0000 C.3     1  UNL1        0.0790
     15 C           5.4641   -4.0000    0.0000 C.3     1  UNL1        0.0790
     16 C           6.3301    3.5000    0.0000 C.2     1  UNL1        0.3042
     17 C           7.1962    4.0000    0.0000 C.3     1  UNL1        0.0332
     18 H           3.1951   -0.6900    0.0000 H       1  UNL1        0.0661
     19 H           6.0010   -0.6900    0.0000 H       1  UNL1        0.0625
     20 H           6.0010   -2.3100    0.0000 H       1  UNL1        0.0655
     21 H           4.0611    0.8100    0.0000 H       1  UNL1        0.0621
     22 H           6.0010    0.6900    0.0000 H       1  UNL1        0.0606
     23 H           5.2520    2.5826    0.0000 H       1  UNL1        0.0743
     24 H           4.8535    1.8923    0.0000 H       1  UNL1        0.0743
     25 H           2.3100   -1.4631    0.0000 H       1  UNL1        0.0660
     26 H           1.4631   -1.6900    0.0000 H       1  UNL1        0.0660
     27 H           1.6900   -2.5369    0.0000 H       1  UNL1        0.0660
     28 H           5.1541   -4.5369    0.0000 H       1  UNL1        0.0660
     29 H           6.0010   -4.3100    0.0000 H       1  UNL1        0.0660
     30 H           5.7741   -3.4631    0.0000 H       1  UNL1        0.0660
     31 H           7.5062    3.4631    0.0000 H       1  UNL1        0.0342
     32 H           7.7331    4.3100    0.0000 H       1  UNL1        0.0342
     33 H           6.8862    4.5369    0.0000 H       1  UNL1        0.0342
@<TRIPOS>BOND
     1     1     6    1
     2     1    14    1
     3     2     8    1
     4     2    15    1
     5     3    13    1
     6     3    16    1
     7     4    16    2
     8     5     7   ar
     9     5     9   ar
    10     5    11    1
    11     6     7   ar
    12     6     8   ar
    13     7    18    1
    14     8    10   ar
    15     9    10   ar
    16     9    19    1
    17    10    20    1
    18    11    12    2
    19    11    21    1
    20    12    13    1
    21    12    22    1
    22    13    23    1
    23    13    24    1
    24    14    25    1
    25    14    26    1
    26    14    27    1
    27    15    28    1
    28    15    29    1
    29    15    30    1
    30    16    17    1
    31    17    31    1
    32    17    32    1
    33    17    33    1
