@<TRIPOS>MOLECULE
IMPHY014628
 52 51 0 0 0
SMALL
GASTEIGER

@<TRIPOS>ATOM
      1 O           2.5369    0.4400    0.0000 O.3     1  UNL1       -0.4806
      2 O           3.4030   -1.0600    0.0000 O.2     1  UNL1       -0.2510
      3 C          10.3312   -0.0600    0.0000 C.3     1  UNL1       -0.0528
      4 C           9.4651    0.4400    0.0000 C.3     1  UNL1       -0.0528
      5 C          11.1972    0.4400    0.0000 C.3     1  UNL1       -0.0496
      6 C           8.5991   -0.0600    0.0000 C.3     1  UNL1       -0.0496
      7 C          12.0632   -0.0600    0.0000 C.3     1  UNL1       -0.0348
      8 C           7.7331    0.4400    0.0000 C.3     1  UNL1       -0.0348
      9 C          15.5273   -0.0600    0.0000 C.3     1  UNL1       -0.0496
     10 C          14.6613    0.4400    0.0000 C.3     1  UNL1       -0.0348
     11 C          16.3933    0.4400    0.0000 C.3     1  UNL1       -0.0530
     12 C          12.9292    0.4400    0.0000 C.2     1  UNL1       -0.0879
     13 C          13.7953   -0.0600    0.0000 C.2     1  UNL1       -0.0879
     14 C          17.2594   -0.0600    0.0000 C.3     1  UNL1       -0.0559
     15 C           6.8671   -0.0600    0.0000 C.2     1  UNL1       -0.0879
     16 C          18.1254    0.4400    0.0000 C.3     1  UNL1       -0.0653
     17 C           6.0010    0.4400    0.0000 C.2     1  UNL1       -0.0874
     18 C           5.1350   -0.0600    0.0000 C.3     1  UNL1       -0.0247
     19 C           4.2690    0.4400    0.0000 C.3     1  UNL1        0.0482
     20 C           3.4030   -0.0600    0.0000 C.2     1  UNL1        0.3050
     21 H           9.9326   -0.5349    0.0000 H       1  UNL1        0.0265
     22 H          10.7297   -0.5349    0.0000 H       1  UNL1        0.0265
     23 H           9.8637    0.9149    0.0000 H       1  UNL1        0.0265
     24 H           9.0666    0.9149    0.0000 H       1  UNL1        0.0265
     25 H          11.5957    0.9149    0.0000 H       1  UNL1        0.0268
     26 H          10.7987    0.9149    0.0000 H       1  UNL1        0.0268
     27 H           8.2006   -0.5349    0.0000 H       1  UNL1        0.0268
     28 H           8.9976   -0.5349    0.0000 H       1  UNL1        0.0268
     29 H          11.6647   -0.5349    0.0000 H       1  UNL1        0.0307
     30 H          12.4617   -0.5349    0.0000 H       1  UNL1        0.0307
     31 H           8.1316    0.9149    0.0000 H       1  UNL1        0.0307
     32 H           7.3346    0.9149    0.0000 H       1  UNL1        0.0307
     33 H          15.1288   -0.5349    0.0000 H       1  UNL1        0.0268
     34 H          15.9258   -0.5349    0.0000 H       1  UNL1        0.0268
     35 H          15.0598    0.9149    0.0000 H       1  UNL1        0.0307
     36 H          14.2628    0.9149    0.0000 H       1  UNL1        0.0307
     37 H          16.7919    0.9149    0.0000 H       1  UNL1        0.0265
     38 H          15.9948    0.9149    0.0000 H       1  UNL1        0.0265
     39 H          12.9292    1.0600    0.0000 H       1  UNL1        0.0569
     40 H          13.7953   -0.6800    0.0000 H       1  UNL1        0.0569
     41 H          16.8608   -0.5349    0.0000 H       1  UNL1        0.0263
     42 H          17.6579   -0.5349    0.0000 H       1  UNL1        0.0263
     43 H           6.8671   -0.6800    0.0000 H       1  UNL1        0.0569
     44 H          18.4354   -0.0969    0.0000 H       1  UNL1        0.0230
     45 H          18.6623    0.7500    0.0000 H       1  UNL1        0.0230
     46 H          17.8154    0.9769    0.0000 H       1  UNL1        0.0230
     47 H           6.0010    1.0600    0.0000 H       1  UNL1        0.0569
     48 H           4.7365   -0.5349    0.0000 H       1  UNL1        0.0312
     49 H           5.5335   -0.5349    0.0000 H       1  UNL1        0.0312
     50 H           4.6675    0.9149    0.0000 H       1  UNL1        0.0380
     51 H           3.8705    0.9149    0.0000 H       1  UNL1        0.0380
     52 H           2.0000    0.1300    0.0000 H       1  UNL1        0.2951
@<TRIPOS>BOND
     1     1    20    1
     2     1    52    1
     3     2    20    2
     4     3     4    1
     5     3     5    1
     6     3    21    1
     7     3    22    1
     8     4     6    1
     9     4    23    1
    10     4    24    1
    11     5     7    1
    12     5    25    1
    13     5    26    1
    14     6     8    1
    15     6    27    1
    16     6    28    1
    17     7    12    1
    18     7    29    1
    19     7    30    1
    20     8    15    1
    21     8    31    1
    22     8    32    1
    23     9    10    1
    24     9    11    1
    25     9    33    1
    26     9    34    1
    27    10    13    1
    28    10    35    1
    29    10    36    1
    30    11    14    1
    31    11    37    1
    32    11    38    1
    33    12    13    2
    34    12    39    1
    35    13    40    1
    36    14    16    1
    37    14    41    1
    38    14    42    1
    39    15    17    2
    40    15    43    1
    41    16    44    1
    42    16    45    1
    43    16    46    1
    44    17    18    1
    45    17    47    1
    46    18    19    1
    47    18    48    1
    48    18    49    1
    49    19    20    1
    50    19    50    1
    51    19    51    1
