@<TRIPOS>MOLECULE
IMPHY010602
 116 123 0 0 0
SMALL
GASTEIGER

@<TRIPOS>ATOM
      1 O           8.2902    4.0403    0.0000 O.3     1  UNL1       -0.3308
      2 O           9.4780    1.9639    0.0000 O.3     1  UNL1       -0.3889
      3 O           6.5177    4.9351    0.0000 O.3     1  UNL1       -0.4292
      4 O           6.8671   -4.2038    0.0000 O.3     1  UNL1       -0.3454
      5 O           9.1545    4.7173    0.0000 O.3     1  UNL1       -0.3853
      6 O           5.4954    6.3333    0.0000 O.2     1  UNL1       -0.2505
      7 O           5.1350   -4.2038    0.0000 O.3     1  UNL1       -0.3405
      8 O           6.8671   -6.2038    0.0000 O.3     1  UNL1       -0.3378
      9 O           5.1350   -7.2038    0.0000 O.3     1  UNL1       -0.3864
     10 O           3.4030   -6.2038    0.0000 O.3     1  UNL1       -0.3865
     11 O           7.7331   -4.7038    0.0000 O.3     1  UNL1       -0.3431
     12 O           2.5369   -4.7038    0.0000 O.3     1  UNL1       -0.3924
     13 O           8.5991   -7.2038    0.0000 O.3     1  UNL1       -0.3841
     14 O          10.3312   -6.2038    0.0000 O.3     1  UNL1       -0.3864
     15 O          10.3312   -4.2038    0.0000 O.3     1  UNL1       -0.3866
     16 C           6.8963    1.9931    0.0000 C.3     1  UNL1       -0.0208
     17 C           7.7643    1.4965    0.0000 C.3     1  UNL1       -0.0037
     18 C           7.7681    0.4965    0.0000 C.3     1  UNL1       -0.0319
     19 C           7.1018    2.9657    0.0000 C.3     1  UNL1        0.0022
     20 C           6.9040   -0.0069    0.0000 C.3     1  UNL1       -0.0322
     21 C           8.0901    3.0726    0.0000 C.3     1  UNL1        0.0929
     22 C           8.4987    2.1664    0.0000 C.3     1  UNL1        0.0853
     23 C           6.8920   -1.0484    0.0000 C.3     1  UNL1       -0.0260
     24 C           6.0322    1.4898    0.0000 C.3     1  UNL1       -0.0467
     25 C           6.0361    0.4898    0.0000 C.3     1  UNL1       -0.0489
     26 C           6.6995    3.8683    0.0000 C.3     1  UNL1        0.0303
     27 C           7.7920   -1.5727    0.0000 C.3     1  UNL1       -0.0330
     28 C           8.6801   -0.0069    0.0000 C.3     1  UNL1       -0.0493
     29 C           7.4324    4.5311    0.0000 C.3     1  UNL1        0.2448
     30 C           8.6921   -1.0484    0.0000 C.3     1  UNL1       -0.0494
     31 C           6.0284    2.4898    0.0000 C.3     1  UNL1       -0.0589
     32 C           5.9421   -1.5727    0.0000 C.3     1  UNL1       -0.0448
     33 C           7.8046   -2.6576    0.0000 C.3     1  UNL1       -0.0232
     34 C           6.0279   -0.5451    0.0000 C.3     1  UNL1       -0.0590
     35 C           5.9295   -2.6576    0.0000 C.3     1  UNL1       -0.0260
     36 C           5.7211    4.0750    0.0000 C.3     1  UNL1       -0.0560
     37 C           6.8671   -3.2038    0.0000 C.3     1  UNL1        0.0621
     38 C           8.2397    5.1213    0.0000 C.3     1  UNL1        0.1214
     39 C           8.1322    6.1155    0.0000 C.3     1  UNL1       -0.0080
     40 C           7.2174    6.5195    0.0000 C.3     1  UNL1        0.0563
     41 C           6.4102    5.9293    0.0000 C.2     1  UNL1        0.3125
     42 C           6.0010   -4.7038    0.0000 C.3     1  UNL1        0.1886
     43 C           7.1100    7.5138    0.0000 C.3     1  UNL1       -0.0522
     44 C           6.0010   -5.7038    0.0000 C.3     1  UNL1        0.1406
     45 C           5.1350   -6.2038    0.0000 C.3     1  UNL1        0.1144
     46 C           4.2690   -4.7038    0.0000 C.3     1  UNL1        0.1130
     47 C           4.2690   -5.7038    0.0000 C.3     1  UNL1        0.1119
     48 C           3.4030   -4.2038    0.0000 C.3     1  UNL1        0.0730
     49 C           7.7331   -5.7038    0.0000 C.3     1  UNL1        0.1884
     50 C           8.5991   -6.2038    0.0000 C.3     1  UNL1        0.1341
     51 C           9.4651   -5.7038    0.0000 C.3     1  UNL1        0.1140
     52 C           8.5991   -4.2038    0.0000 C.3     1  UNL1        0.0873
     53 C           9.4651   -4.7038    0.0000 C.3     1  UNL1        0.1095
     54 C           8.5991   -3.2038    0.0000 C.3     1  UNL1       -0.0361
     55 H           8.5426    1.1548    0.0000 H       1  UNL1        0.0335
     56 H           8.4993    0.9300    0.0000 H       1  UNL1        0.0307
     57 H           6.2565    2.8762    0.0000 H       1  UNL1        0.0337
     58 H           7.6385   -0.4347    0.0000 H       1  UNL1        0.0309
     59 H           8.9350    3.1658    0.0000 H       1  UNL1        0.0626
     60 H           8.6628    1.5685    0.0000 H       1  UNL1        0.0622
     61 H           5.8179    2.0716    0.0000 H       1  UNL1        0.0271
     62 H           5.4221    1.3798    0.0000 H       1  UNL1        0.0271
     63 H           5.4251    0.5951    0.0000 H       1  UNL1        0.0268
     64 H           5.8263   -0.0936    0.0000 H       1  UNL1        0.0268
     65 H           6.3097    3.3862    0.0000 H       1  UNL1        0.0366
     66 H           8.5314   -1.9920    0.0000 H       1  UNL1        0.0307
     67 H           9.2921   -0.1059    0.0000 H       1  UNL1        0.0268
     68 H           8.8824    0.5792    0.0000 H       1  UNL1        0.0268
     69 H           8.9079   -1.6297    0.0000 H       1  UNL1        0.0268
     70 H           9.3017   -0.9353    0.0000 H       1  UNL1        0.0268
     71 H           6.3363    3.0279    0.0000 H       1  UNL1        0.0235
     72 H           5.4902    2.7977    0.0000 H       1  UNL1        0.0235
     73 H           5.7204    1.9517    0.0000 H       1  UNL1        0.0235
     74 H           5.7398   -0.9866    0.0000 H       1  UNL1        0.0271
     75 H           5.3300   -1.6717    0.0000 H       1  UNL1        0.0271
     76 H           8.0204   -3.2389    0.0000 H       1  UNL1        0.0293
     77 H           8.4142   -2.5445    0.0000 H       1  UNL1        0.0293
     78 H           6.3400   -0.0093    0.0000 H       1  UNL1        0.0235
     79 H           5.4922   -0.2330    0.0000 H       1  UNL1        0.0235
     80 H           5.7158   -1.0808    0.0000 H       1  UNL1        0.0235
     81 H           5.3199   -2.5445    0.0000 H       1  UNL1        0.0290
     82 H           5.7137   -3.2389    0.0000 H       1  UNL1        0.0290
     83 H           5.8492    4.6816    0.0000 H       1  UNL1        0.0235
     84 H           5.1145    4.2032    0.0000 H       1  UNL1        0.0235
     85 H           5.5929    3.4684    0.0000 H       1  UNL1        0.0235
     86 H           7.4046   -3.5127    0.0000 H       1  UNL1        0.0597
     87 H           8.7402    5.4873    0.0000 H       1  UNL1        0.0659
     88 H           9.8903    2.4270    0.0000 H       1  UNL1        0.2099
     89 H           8.7508    6.0741    0.0000 H       1  UNL1        0.0300
     90 H           8.2804    6.7176    0.0000 H       1  UNL1        0.0300
     91 H           7.7180    6.8855    0.0000 H       1  UNL1        0.0411
     92 H           9.6550    5.0832    0.0000 H       1  UNL1        0.2101
     93 H           6.0010   -4.0838    0.0000 H       1  UNL1        0.0938
     94 H           7.7264    7.5804    0.0000 H       1  UNL1        0.0238
     95 H           7.0433    8.1302    0.0000 H       1  UNL1        0.0238
     96 H           6.4935    7.4471    0.0000 H       1  UNL1        0.0238
     97 H           6.0010   -6.3238    0.0000 H       1  UNL1        0.0675
     98 H           4.5981   -6.5138    0.0000 H       1  UNL1        0.0648
     99 H           4.2690   -4.0838    0.0000 H       1  UNL1        0.0647
    100 H           3.7320   -5.3938    0.0000 H       1  UNL1        0.0647
    101 H           3.8015   -3.7288    0.0000 H       1  UNL1        0.0584
    102 H           3.0044   -3.7288    0.0000 H       1  UNL1        0.0584
    103 H           7.1962   -5.3938    0.0000 H       1  UNL1        0.0938
    104 H           4.5981   -7.5138    0.0000 H       1  UNL1        0.2100
    105 H           3.4030   -6.8238    0.0000 H       1  UNL1        0.2100
    106 H           8.0622   -6.5138    0.0000 H       1  UNL1        0.0671
    107 H           2.0000   -4.3938    0.0000 H       1  UNL1        0.2095
    108 H          10.0021   -5.3938    0.0000 H       1  UNL1        0.0648
    109 H           8.0622   -3.8938    0.0000 H       1  UNL1        0.0621
    110 H           9.4651   -4.0838    0.0000 H       1  UNL1        0.0646
    111 H           9.1360   -7.5138    0.0000 H       1  UNL1        0.2101
    112 H           9.2191   -3.2038    0.0000 H       1  UNL1        0.0255
    113 H           8.5991   -2.5838    0.0000 H       1  UNL1        0.0255
    114 H           7.9791   -3.2038    0.0000 H       1  UNL1        0.0255
    115 H          10.8681   -5.8938    0.0000 H       1  UNL1        0.2100
    116 H          10.3312   -3.5838    0.0000 H       1  UNL1        0.2100
@<TRIPOS>BOND
     1     1    21    1
     2    29     1    1
     3    22     2    1
     4     2    88    1
     5     3    29    1
     6     3    41    1
     7    37     4    1
     8    42     4    1
     9    38     5    1
    10     5    92    1
    11     6    41    2
    12     7    42    1
    13     7    46    1
    14    44     8    1
    15    49     8    1
    16    45     9    1
    17     9   104    1
    18    47    10    1
    19    10   105    1
    20    11    49    1
    21    11    52    1
    22    12    48    1
    23    12   107    1
    24    50    13    1
    25    13   111    1
    26    51    14    1
    27    14   115    1
    28    53    15    1
    29    15   116    1
    30    16    17    1
    31    16    19    1
    32    16    24    1
    33    16    31    1
    34    17    18    1
    35    17    22    1
    36    17    55    1
    37    18    20    1
    38    18    28    1
    39    18    56    1
    40    19    21    1
    41    19    26    1
    42    19    57    1
    43    20    23    1
    44    20    25    1
    45    20    58    1
    46    21    22    1
    47    21    59    1
    48    22    60    1
    49    23    27    1
    50    23    32    1
    51    23    34    1
    52    24    25    1
    53    24    61    1
    54    24    62    1
    55    25    63    1
    56    25    64    1
    57    26    29    1
    58    26    36    1
    59    26    65    1
    60    27    30    1
    61    27    33    1
    62    27    66    1
    63    28    30    1
    64    28    67    1
    65    28    68    1
    66    29    38    1
    67    30    69    1
    68    30    70    1
    69    31    71    1
    70    31    72    1
    71    31    73    1
    72    32    35    1
    73    32    74    1
    74    32    75    1
    75    33    37    1
    76    33    76    1
    77    33    77    1
    78    34    78    1
    79    34    79    1
    80    34    80    1
    81    35    37    1
    82    35    81    1
    83    35    82    1
    84    36    83    1
    85    36    84    1
    86    36    85    1
    87    37    86    1
    88    38    39    1
    89    38    87    1
    90    39    40    1
    91    39    89    1
    92    39    90    1
    93    40    41    1
    94    40    43    1
    95    40    91    1
    96    42    44    1
    97    42    93    1
    98    43    94    1
    99    43    95    1
   100    43    96    1
   101    44    45    1
   102    44    97    1
   103    45    47    1
   104    45    98    1
   105    46    47    1
   106    46    48    1
   107    46    99    1
   108    47   100    1
   109    48   101    1
   110    48   102    1
   111    49    50    1
   112    49   103    1
   113    50    51    1
   114    50   106    1
   115    51    53    1
   116    51   108    1
   117    52    53    1
   118    52    54    1
   119    52   109    1
   120    53   110    1
   121    54   112    1
   122    54   113    1
   123    54   114    1
