@<TRIPOS>MOLECULE
IMPHY009008
 75 81 0 0 0
SMALL
GASTEIGER

@<TRIPOS>ATOM
      1 O           3.7048   -0.0136    0.0000 O.3     1  UNL1       -0.3580
      2 O           3.4462    1.5969    0.0000 O.2     1  UNL1       -0.4868
      3 O           7.0399    2.1535    0.0000 O.2     1  UNL1       -0.2916
      4 C           5.3078    0.1535    0.0000 C.3     1  UNL1        0.0293
      5 C           4.4418    0.6535    0.0000 C.3     1  UNL1        0.1406
      6 C           6.1738    0.6535    0.0000 C.3     1  UNL1        0.0461
      7 C           5.2150   -1.3415    0.0000 C.3     1  UNL1       -0.0100
      8 C           3.1936   -0.1744    0.0000 C.3     1  UNL1        0.0356
      9 C           4.1099   -0.9214    0.0000 C.3     1  UNL1        0.0748
     10 C           5.0986   -0.8184    0.0000 C.3     1  UNL1       -0.0132
     11 C           3.7348   -1.5710    0.0000 C.3     1  UNL1       -0.0363
     12 C           4.6099   -1.7874    0.0000 C.3     1  UNL1       -0.0066
     13 C           4.4418    1.6535    0.0000 C.2     1  UNL1        0.1379
     14 C           2.8839    0.7734    0.0000 C.3     1  UNL1        0.1106
     15 C           5.9219   -0.3133    0.0000 C.3     1  UNL1       -0.0390
     16 C           6.9811    0.0443    0.0000 C.3     1  UNL1       -0.0212
     17 C           5.3829   -1.1545    0.0000 C.3     1  UNL1       -0.0462
     18 C           3.1099   -0.9214    0.0000 C.3     1  UNL1       -0.0234
     19 C           6.1738    1.6535    0.0000 C.2     1  UNL1        0.1698
     20 C           4.1099   -2.6535    0.0000 C.3     1  UNL1       -0.0294
     21 C           6.1949   -1.5913    0.0000 C.2     1  UNL1       -0.0727
     22 C           5.3078    2.1535    0.0000 C.2     1  UNL1        0.0385
     23 C           6.9906   -0.9670    0.0000 C.2     1  UNL1       -0.0838
     24 C           2.6099   -1.7874    0.0000 C.3     1  UNL1       -0.0499
     25 C           3.1099   -2.6535    0.0000 C.3     1  UNL1       -0.0474
     26 C           2.1660    1.4696    0.0000 C.3     1  UNL1       -0.0248
     27 C           2.0000    0.3058    0.0000 C.3     1  UNL1       -0.0248
     28 C           5.3078    3.1535    0.0000 C.3     1  UNL1       -0.0149
     29 C           4.1099   -3.6535    0.0000 C.3     1  UNL1       -0.0595
     30 C           4.9759   -3.1535    0.0000 C.3     1  UNL1       -0.0595
     31 C           6.4013   -2.5698    0.0000 C.3     1  UNL1       -0.0435
     32 C           6.1738    3.6535    0.0000 C.3     1  UNL1       -0.0584
     33 C           4.4418    3.6535    0.0000 C.3     1  UNL1       -0.0584
     34 H           5.1853   -1.9608    0.0000 H       1  UNL1        0.0352
     35 H           2.3930   -0.4601    0.0000 H       1  UNL1        0.0372
     36 H           5.0977   -1.4384    0.0000 H       1  UNL1        0.0300
     37 H           5.7151   -0.8844    0.0000 H       1  UNL1        0.0300
     38 H           3.1421   -1.7529    0.0000 H       1  UNL1        0.0276
     39 H           3.8737   -2.1752    0.0000 H       1  UNL1        0.0276
     40 H           5.0824   -2.1888    0.0000 H       1  UNL1        0.0334
     41 H           6.2629   -0.8311    0.0000 H       1  UNL1        0.0275
     42 H           5.3539   -0.0648    0.0000 H       1  UNL1        0.0275
     43 H           7.5876   -0.0845    0.0000 H       1  UNL1        0.0317
     44 H           7.2383    0.6084    0.0000 H       1  UNL1        0.0317
     45 H           5.5468   -1.7525    0.0000 H       1  UNL1        0.0269
     46 H           4.9198   -0.7423    0.0000 H       1  UNL1        0.0269
     47 H           3.2175   -0.3108    0.0000 H       1  UNL1        0.0293
     48 H           2.5273   -0.7094    0.0000 H       1  UNL1        0.0293
     49 H           7.5494   -1.2356    0.0000 H       1  UNL1        0.0572
     50 H           2.1349   -1.3889    0.0000 H       1  UNL1        0.0266
     51 H           2.1349   -2.1860    0.0000 H       1  UNL1        0.0266
     52 H           2.5273   -2.8655    0.0000 H       1  UNL1        0.0271
     53 H           3.2175   -3.2640    0.0000 H       1  UNL1        0.0271
     54 H           1.7101    0.8538    0.0000 H       1  UNL1        0.0268
     55 H           2.5976    1.9147    0.0000 H       1  UNL1        0.0268
     56 H           1.7209    1.9012    0.0000 H       1  UNL1        0.0268
     57 H           1.7344    1.0245    0.0000 H       1  UNL1        0.0268
     58 H           1.4520    0.0158    0.0000 H       1  UNL1        0.0268
     59 H           2.2899   -0.2422    0.0000 H       1  UNL1        0.0268
     60 H           5.3078    3.7735    0.0000 H       1  UNL1        0.0346
     61 H           3.4899   -3.6535    0.0000 H       1  UNL1        0.0235
     62 H           4.1099   -4.2735    0.0000 H       1  UNL1        0.0235
     63 H           4.7299   -3.6535    0.0000 H       1  UNL1        0.0235
     64 H           4.6659   -3.6904    0.0000 H       1  UNL1        0.0235
     65 H           5.5128   -3.4635    0.0000 H       1  UNL1        0.0235
     66 H           5.2859   -2.6165    0.0000 H       1  UNL1        0.0235
     67 H           5.7946   -2.6977    0.0000 H       1  UNL1        0.0274
     68 H           6.5292   -3.1764    0.0000 H       1  UNL1        0.0274
     69 H           7.0079   -2.4418    0.0000 H       1  UNL1        0.0274
     70 H           6.4838    3.1165    0.0000 H       1  UNL1        0.0235
     71 H           6.7108    3.9635    0.0000 H       1  UNL1        0.0235
     72 H           4.7518    4.1904    0.0000 H       1  UNL1        0.0235
     73 H           3.9048    3.9635    0.0000 H       1  UNL1        0.0235
     74 H           5.8638    4.1904    0.0000 H       1  UNL1        0.0235
     75 H           4.1318    3.1165    0.0000 H       1  UNL1        0.0235
@<TRIPOS>BOND
     1     5     1    1
     2     1     9    1
     3     2    13    1
     4     2    14    1
     5     3    19    2
     6     4     5    1
     7     4     6    1
     8     4     7    1
     9     4    10    1
    10     5     8    1
    11     5    13    1
    12     6    15    1
    13     6    16    1
    14     6    19    1
    15     7    11    1
    16     7    21    1
    17     7    34    1
    18     8    11    1
    19     8    14    1
    20     8    35    1
    21     9    10    1
    22     9    12    1
    23     9    18    1
    24    10    36    1
    25    10    37    1
    26    11    38    1
    27    11    39    1
    28    12    17    1
    29    12    20    1
    30    12    40    1
    31    13    22    2
    32    14    26    1
    33    14    27    1
    34    15    17    1
    35    15    41    1
    36    15    42    1
    37    16    23    1
    38    16    43    1
    39    16    44    1
    40    17    45    1
    41    17    46    1
    42    18    24    1
    43    18    47    1
    44    18    48    1
    45    19    22    1
    46    20    25    1
    47    20    29    1
    48    20    30    1
    49    21    23    2
    50    21    31    1
    51    22    28    1
    52    23    49    1
    53    24    25    1
    54    24    50    1
    55    24    51    1
    56    25    52    1
    57    25    53    1
    58    26    55    1
    59    26    56    1
    60    26    57    1
    61    27    54    1
    62    27    58    1
    63    27    59    1
    64    28    32    1
    65    28    33    1
    66    28    60    1
    67    29    61    1
    68    29    62    1
    69    29    63    1
    70    30    64    1
    71    30    65    1
    72    30    66    1
    73    31    67    1
    74    31    68    1
    75    31    69    1
    76    32    70    1
    77    32    71    1
    78    32    74    1
    79    33    72    1
    80    33    73    1
    81    33    75    1
