@<TRIPOS>MOLECULE
IMPHY001298
 84 91 0 0 0
SMALL
GASTEIGER

@<TRIPOS>ATOM
      1 S           4.7841   -4.1435    0.0000 S.3     1  UNL1       -0.1319
      2 O           7.5006    3.6253    0.0000 O.3     1  UNL1       -0.3877
      3 O           5.5180   -1.6087    0.0000 O.3     1  UNL1       -0.3368
      4 O           3.7860   -0.6087    0.0000 O.3     1  UNL1       -0.3407
      5 O           7.3021   -0.5603    0.0000 O.2     1  UNL1       -0.3004
      6 O           2.8760   -2.1156    0.0000 O.3     1  UNL1       -0.3435
      7 O          12.5595    2.3013    0.0000 O.3     1  UNL1       -0.4571
      8 O           5.2948   -2.8748    0.0000 O.3     1  UNL1       -0.3588
      9 O          13.6786    3.6881    0.0000 O.2     1  UNL1       -0.2456
     10 N           5.5768   -2.7329    0.0000 N.3     1  UNL1       -0.2970
     11 C           8.3667    3.1253    0.0000 C.3     1  UNL1        0.0751
     12 C           7.3923    2.5526    0.0000 C.3     1  UNL1       -0.0079
     13 C           7.3839    1.4677    0.0000 C.3     1  UNL1       -0.0231
     14 C           9.3454    2.5602    0.0000 C.3     1  UNL1        0.0036
     15 C           6.4361    0.9397    0.0000 C.3     1  UNL1        0.0344
     16 C           5.5340    1.4606    0.0000 C.3     1  UNL1       -0.0262
     17 C           8.3494    0.8801    0.0000 C.3     1  UNL1       -0.0484
     18 C           9.3367    1.4300    0.0000 C.3     1  UNL1       -0.0442
     19 C          10.1784    3.3141    0.0000 C.3     1  UNL1       -0.0081
     20 C           6.4527    3.0952    0.0000 C.3     1  UNL1       -0.0470
     21 C           8.6031    4.2236    0.0000 C.3     1  UNL1       -0.0226
     22 C           5.5172    2.5454    0.0000 C.3     1  UNL1       -0.0489
     23 C           6.4280   -0.1019    0.0000 C.3     1  UNL1       -0.0114
     24 C           9.7205    4.3400    0.0000 C.3     1  UNL1       -0.0432
     25 C           4.6359    0.9328    0.0000 C.3     1  UNL1       -0.0203
     26 C           5.5180   -0.6087    0.0000 C.3     1  UNL1        0.0893
     27 C          10.2115    2.0602    0.0000 C.3     1  UNL1       -0.0564
     28 C           4.6520   -0.1087    0.0000 C.3     1  UNL1        0.0884
     29 C           7.3021    0.4397    0.0000 C.2     1  UNL1        0.1270
     30 C          11.1569    3.1079    0.0000 C.2     1  UNL1       -0.0222
     31 C           4.6520   -2.1087    0.0000 C.3     1  UNL1        0.2485
     32 C           3.7860   -1.6087    0.0000 C.3     1  UNL1        0.2171
     33 C          11.5652    2.1950    0.0000 C.3     1  UNL1        0.1147
     34 C           4.6681   -3.1502    0.0000 C.3     1  UNL1        0.1275
     35 C          11.8989    3.7783    0.0000 C.2     1  UNL1        0.0252
     36 C           3.7700   -3.6780    0.0000 C.3     1  UNL1        0.0063
     37 C           2.8680   -3.1572    0.0000 C.3     1  UNL1        0.0617
     38 C          12.7658    3.2798    0.0000 C.2     1  UNL1        0.3323
     39 C           6.2545   -3.4683    0.0000 C.3     1  UNL1        0.0063
     40 C           5.7646   -4.3400    0.0000 C.3     1  UNL1        0.0082
     41 C           2.0000   -3.6538    0.0000 C.3     1  UNL1       -0.0385
     42 H           7.3890    3.4026    0.0000 H       1  UNL1        0.0332
     43 H           7.3676    0.6178    0.0000 H       1  UNL1        0.0314
     44 H           4.7930    1.8770    0.0000 H       1  UNL1        0.0311
     45 H           7.9412    0.4135    0.0000 H       1  UNL1        0.0268
     46 H           8.7393    0.3981    0.0000 H       1  UNL1        0.0268
     47 H           9.5413    0.8448    0.0000 H       1  UNL1        0.0272
     48 H           9.9484    1.5314    0.0000 H       1  UNL1        0.0272
     49 H          10.5679    3.7964    0.0000 H       1  UNL1        0.0353
     50 H           6.8500    3.5711    0.0000 H       1  UNL1        0.0269
     51 H           6.0517    3.5680    0.0000 H       1  UNL1        0.0269
     52 H           8.6040    4.8436    0.0000 H       1  UNL1        0.0293
     53 H           7.9866    4.2896    0.0000 H       1  UNL1        0.0293
     54 H           5.2992    3.1258    0.0000 H       1  UNL1        0.0268
     55 H           4.9081    2.4299    0.0000 H       1  UNL1        0.0268
     56 H           6.6326   -0.6871    0.0000 H       1  UNL1        0.0300
     57 H           7.0397   -0.0005    0.0000 H       1  UNL1        0.0300
     58 H          10.3101    4.5318    0.0000 H       1  UNL1        0.0272
     59 H           9.5918    4.9465    0.0000 H       1  UNL1        0.0272
     60 H           4.4179    1.5132    0.0000 H       1  UNL1        0.0294
     61 H           4.0268    0.8173    0.0000 H       1  UNL1        0.0294
     62 H           6.2508   -1.0394    0.0000 H       1  UNL1        0.0623
     63 H           9.9014    1.5232    0.0000 H       1  UNL1        0.0236
     64 H          10.7484    1.7502    0.0000 H       1  UNL1        0.0236
     65 H          10.5215    2.5971    0.0000 H       1  UNL1        0.0236
     66 H           3.9126    0.3106    0.0000 H       1  UNL1        0.0623
     67 H           7.9221    0.4397    0.0000 H       1  UNL1        0.1032
     68 H           7.5006    4.2453    0.0000 H       1  UNL1        0.2102
     69 H           3.0532   -1.1780    0.0000 H       1  UNL1        0.0967
     70 H          10.9759    2.0024    0.0000 H       1  UNL1        0.0746
     71 H          11.6952    1.5888    0.0000 H       1  UNL1        0.0746
     72 H          11.8330    4.3948    0.0000 H       1  UNL1        0.0689
     73 H           3.3727   -4.1539    0.0000 H       1  UNL1        0.0318
     74 H           4.1710   -4.1509    0.0000 H       1  UNL1        0.0318
     75 H           2.3328   -2.8441    0.0000 H       1  UNL1        0.0595
     76 H           5.9864   -2.2674    0.0000 H       1  UNL1        0.1234
     77 H           5.4025   -3.4853    0.0000 H       1  UNL1        0.2130
     78 H           6.7603   -3.8269    0.0000 H       1  UNL1        0.0432
     79 H           6.6640   -3.0028    0.0000 H       1  UNL1        0.0432
     80 H           5.5798   -4.9319    0.0000 H       1  UNL1        0.0389
     81 H           6.3338   -4.5856    0.0000 H       1  UNL1        0.0389
     82 H           1.6921   -3.1157    0.0000 H       1  UNL1        0.0255
     83 H           1.4619   -3.9617    0.0000 H       1  UNL1        0.0255
     84 H           2.3079   -4.1919    0.0000 H       1  UNL1        0.0255
@<TRIPOS>BOND
     1     1    34    1
     2     1    40    1
     3    11     2    1
     4     2    68    1
     5     3    26    1
     6     3    31    1
     7     4    28    1
     8     4    32    1
     9     5    29    2
    10     6    32    1
    11     6    37    1
    12     7    33    1
    13     7    38    1
    14    31     8    1
    15     8    77    1
    16     9    38    2
    17    34    10    1
    18    10    39    1
    19    10    76    1
    20    11    12    1
    21    11    14    1
    22    11    21    1
    23    12    13    1
    24    12    20    1
    25    12    42    1
    26    13    15    1
    27    13    17    1
    28    13    43    1
    29    14    18    1
    30    14    19    1
    31    14    27    1
    32    15    16    1
    33    15    23    1
    34    15    29    1
    35    16    22    1
    36    16    25    1
    37    16    44    1
    38    17    18    1
    39    17    45    1
    40    17    46    1
    41    18    47    1
    42    18    48    1
    43    19    24    1
    44    19    30    1
    45    19    49    1
    46    20    22    1
    47    20    50    1
    48    20    51    1
    49    21    24    1
    50    21    52    1
    51    21    53    1
    52    22    54    1
    53    22    55    1
    54    23    26    1
    55    23    56    1
    56    23    57    1
    57    24    58    1
    58    24    59    1
    59    25    28    1
    60    25    60    1
    61    25    61    1
    62    26    28    1
    63    26    62    1
    64    27    63    1
    65    27    64    1
    66    27    65    1
    67    28    66    1
    68    29    67    1
    69    30    33    1
    70    30    35    2
    71    31    32    1
    72    31    34    1
    73    32    69    1
    74    33    70    1
    75    33    71    1
    76    34    36    1
    77    35    38    1
    78    35    72    1
    79    36    37    1
    80    36    73    1
    81    36    74    1
    82    37    41    1
    83    37    75    1
    84    39    40    1
    85    39    78    1
    86    39    79    1
    87    40    80    1
    88    40    81    1
    89    41    82    1
    90    41    83    1
    91    41    84    1
