@<TRIPOS>MOLECULE
IMPHY000585
 58 61 0 0 0
SMALL
GASTEIGER

@<TRIPOS>ATOM
      1 O           6.1660    0.5409    0.0000 O.3     1  UNL1       -0.3611
      2 O           4.1660    0.5409    0.0000 O.3     1  UNL1       -0.3765
      3 O           3.6660    1.4069    0.0000 O.3     1  UNL1       -0.3864
      4 O           4.6660    3.1390    0.0000 O.3     1  UNL1       -0.3865
      5 O           6.6660    3.1390    0.0000 O.3     1  UNL1       -0.3865
      6 O           8.1660    2.2729    0.0000 O.3     1  UNL1       -0.4621
      7 O           4.6660   -3.3251    0.0000 O.2     1  UNL1       -0.2864
      8 O           6.4144   -3.3597    0.0000 O.3     1  UNL1       -0.5060
      9 O           2.9176   -3.3597    0.0000 O.3     1  UNL1       -0.5060
     10 O           9.0641   -0.7976    0.0000 O.3     1  UNL1       -0.3904
     11 O           9.6660    1.4069    0.0000 O.2     1  UNL1       -0.2512
     12 C           5.1660    0.5409    0.0000 C.3     1  UNL1        0.1245
     13 C           4.6660   -0.3251    0.0000 C.3     1  UNL1        0.1459
     14 C           4.6660    1.4069    0.0000 C.3     1  UNL1        0.1129
     15 C           5.1660    2.2729    0.0000 C.3     1  UNL1        0.1119
     16 C           6.1660    2.2729    0.0000 C.3     1  UNL1        0.1128
     17 C           6.6660    1.4069    0.0000 C.3     1  UNL1        0.1215
     18 C           5.5321   -0.8251    0.0000 C.ar    1  UNL1        0.0055
     19 C           3.8000   -0.8251    0.0000 C.ar    1  UNL1        0.0052
     20 C           5.5321   -1.8251    0.0000 C.ar    1  UNL1        0.0700
     21 C           7.6660    1.4069    0.0000 C.3     1  UNL1        0.1210
     22 C           3.8000   -1.8251    0.0000 C.ar    1  UNL1        0.0700
     23 C           4.6660   -2.3251    0.0000 C.2     1  UNL1        0.2009
     24 C           6.4260   -0.2905    0.0000 C.ar    1  UNL1       -0.0492
     25 C           2.9061   -0.2905    0.0000 C.ar    1  UNL1       -0.0545
     26 C           6.4260   -2.3598    0.0000 C.ar    1  UNL1        0.1284
     27 C           2.9061   -2.3598    0.0000 C.ar    1  UNL1        0.1280
     28 C           7.3321   -0.8043    0.0000 C.ar    1  UNL1       -0.0183
     29 C           7.3321   -1.8459    0.0000 C.ar    1  UNL1       -0.0141
     30 C           2.0000   -0.8043    0.0000 C.ar    1  UNL1       -0.0579
     31 C           2.0000   -1.8459    0.0000 C.ar    1  UNL1       -0.0194
     32 C           8.1962   -0.3010    0.0000 C.3     1  UNL1        0.0694
     33 C           9.1660    2.2729    0.0000 C.2     1  UNL1        0.3040
     34 C           9.6660    3.1390    0.0000 C.3     1  UNL1        0.0332
     35 H           5.5910   -0.1952    0.0000 H       1  UNL1        0.0659
     36 H           4.3560    0.8700    0.0000 H       1  UNL1        0.0647
     37 H           4.5460    2.2729    0.0000 H       1  UNL1        0.0647
     38 H           6.7860    2.2729    0.0000 H       1  UNL1        0.0647
     39 H           6.9760    0.8700    0.0000 H       1  UNL1        0.0657
     40 H           7.5584    0.7963    0.0000 H       1  UNL1        0.0724
     41 H           8.2486    1.1949    0.0000 H       1  UNL1        0.0724
     42 H           3.5460    0.5409    0.0000 H       1  UNL1        0.2112
     43 H           6.4188    0.3295    0.0000 H       1  UNL1        0.0625
     44 H           3.3560    1.9439    0.0000 H       1  UNL1        0.2100
     45 H           2.9132    0.3295    0.0000 H       1  UNL1        0.0622
     46 H           4.9760    3.6759    0.0000 H       1  UNL1        0.2100
     47 H           6.3560    3.6759    0.0000 H       1  UNL1        0.2100
     48 H           7.8678   -2.1580    0.0000 H       1  UNL1        0.0658
     49 H           1.4643   -0.4922    0.0000 H       1  UNL1        0.0619
     50 H           1.4643   -2.1580    0.0000 H       1  UNL1        0.0654
     51 H           8.5929    0.1755    0.0000 H       1  UNL1        0.0607
     52 H           7.7958    0.1724    0.0000 H       1  UNL1        0.0607
     53 H           6.9478   -3.6759    0.0000 H       1  UNL1        0.2922
     54 H           2.3843   -3.6759    0.0000 H       1  UNL1        0.2922
     55 H           9.5998   -0.4856    0.0000 H       1  UNL1        0.2098
     56 H          10.2030    2.8290    0.0000 H       1  UNL1        0.0342
     57 H           9.9760    3.6759    0.0000 H       1  UNL1        0.0342
     58 H           9.1291    3.4490    0.0000 H       1  UNL1        0.0342
@<TRIPOS>BOND
     1     1    12    1
     2     1    17    1
     3    13     2    1
     4     2    42    1
     5    14     3    1
     6     3    44    1
     7    15     4    1
     8     4    46    1
     9    16     5    1
    10     5    47    1
    11     6    21    1
    12     6    33    1
    13     7    23    2
    14     8    26    1
    15     8    53    1
    16     9    27    1
    17     9    54    1
    18    10    32    1
    19    10    55    1
    20    11    33    2
    21    12    13    1
    22    12    14    1
    23    12    35    1
    24    13    18    1
    25    13    19    1
    26    14    15    1
    27    14    36    1
    28    15    16    1
    29    15    37    1
    30    16    17    1
    31    16    38    1
    32    17    21    1
    33    17    39    1
    34    18    20   ar
    35    18    24   ar
    36    19    22   ar
    37    19    25   ar
    38    20    23    1
    39    20    26   ar
    40    21    40    1
    41    21    41    1
    42    22    23    1
    43    22    27   ar
    44    24    28   ar
    45    24    43    1
    46    25    30   ar
    47    25    45    1
    48    26    29   ar
    49    27    31   ar
    50    28    29   ar
    51    28    32    1
    52    29    48    1
    53    30    31   ar
    54    30    49    1
    55    31    50    1
    56    32    51    1
    57    32    52    1
    58    33    34    1
    59    34    56    1
    60    34    57    1
    61    34    58    1
