@<TRIPOS>MOLECULE
IMPHY009033
 68 75 0 0 0
SMALL
GASTEIGER

@<TRIPOS>ATOM
      1 O           6.5000    0.0000    0.0000 O.3     1  UNL1       -0.3274
      2 O           2.5000   -5.8000    0.0000 O.3     1  UNL1       -0.4495
      3 O           7.5833   -4.0000    0.0000 O.3     1  UNL1       -0.3415
      4 O           4.1364   -8.0000    0.0000 O.3     1  UNL1       -0.4569
      5 O           5.5000   -6.1500    0.0000 O.3     1  UNL1       -0.3751
      6 O           9.5000   -6.1500    0.0000 O.2     1  UNL1       -0.2913
      7 O           8.8636   -8.0000    0.0000 O.2     1  UNL1       -0.2474
      8 O           1.3000  -12.3500    0.0000 O.2     1  UNL1       -0.2504
      9 O          10.2143  -10.1500    0.0000 O.3     1  UNL1       -0.3875
     10 O           6.5000  -11.8000    0.0000 O.2     1  UNL1       -0.2917
     11 C           3.2500   -2.3500    0.0000 C.3     1  UNL1        0.1647
     12 C           1.0833   -4.3500    0.0000 C.3     1  UNL1        0.0655
     13 C           0.5000   -6.3500    0.0000 C.3     1  UNL1       -0.0010
     14 C           3.2500   -4.1500    0.0000 C.3     1  UNL1        0.1799
     15 C           5.4167   -3.8000    0.0000 C.3     1  UNL1        0.1959
     16 C           9.7500   -2.1500    0.0000 C.3     1  UNL1        0.2345
     17 C           3.5000   -6.0000    0.0000 C.3     1  UNL1        0.1457
     18 C           0.5909   -8.3500    0.0000 C.3     1  UNL1       -0.0048
     19 C           9.7500   -4.3500    0.0000 C.2     1  UNL1        0.1988
     20 C           1.7727   -8.1500    0.0000 C.3     1  UNL1        0.0860
     21 C          11.9167   -4.1500    0.0000 C.3     1  UNL1        0.0273
     22 C          10.5000   -5.8000    0.0000 C.3     1  UNL1       -0.0165
     23 C           6.5000   -5.8000    0.0000 C.3     1  UNL1       -0.0102
     24 C           7.6818   -7.8000    0.0000 C.3     1  UNL1       -0.0454
     25 C           7.5000   -6.0000    0.0000 C.2     1  UNL1        0.3430
     26 C           2.9545   -7.8000    0.0000 C.3     1  UNL1       -0.0579
     27 C           8.5000   -6.3500    0.0000 C.3     1  UNL1        0.0648
     28 C           4.5000   -6.3500    0.0000 C.3     1  UNL1       -0.0183
     29 C          10.0455   -8.3500    0.0000 C.3     1  UNL1        0.0569
     30 C          11.5000   -6.0000    0.0000 C.3     1  UNL1       -0.0145
     31 C           0.9286  -10.3500    0.0000 C.2     1  UNL1        0.3134
     32 C          12.4091   -7.8000    0.0000 C.3     1  UNL1        0.0779
     33 C           4.6429   -9.8000    0.0000 C.2     1  UNL1       -0.0278
     34 C           6.5000  -10.0000    0.0000 C.3     1  UNL1       -0.0484
     35 C           8.3571  -10.3500    0.0000 C.2     1  UNL1        0.1662
     36 C           3.9000  -12.1500    0.0000 C.2     1  UNL1       -0.0590
     37 C           9.1000  -12.0000    0.0000 C.2     1  UNL1       -0.0183
     38 C           6.5000  -14.3500    0.0000 C.2     1  UNL1       -0.0584
     39 H           1.5000   -6.1500    0.0000 H       1  UNL1        0.0416
     40 H           5.3182   -8.3500    0.0000 H       1  UNL1        0.0775
     41 H          -1.2644   -8.8372    0.0000 H       1  UNL1        0.0308
     42 H           1.4564  -10.0618    0.0000 H       1  UNL1        0.0308
     43 H           2.7857  -10.1500    0.0000 H       1  UNL1        0.0442
     44 H          12.5000   -6.3500    0.0000 H       1  UNL1        0.0361
     45 H          11.2273   -8.1500    0.0000 H       1  UNL1        0.0318
     46 H           4.5820   -5.7717    0.0000 H       1  UNL1        0.0299
     47 H           8.1693   -4.8551    0.0000 H       1  UNL1        0.0299
     48 H           6.0582   -8.8214    0.0000 H       1  UNL1        0.0269
     49 H           8.7480   -9.3946    0.0000 H       1  UNL1        0.0269
     50 H           1.9789   -9.4515    0.0000 H       1  UNL1        0.0236
     51 H           4.6061   -8.7756    0.0000 H       1  UNL1        0.0236
     52 H           3.9302   -6.1485    0.0000 H       1  UNL1        0.0236
     53 H           9.0637   -8.1835    0.0000 H       1  UNL1        0.0569
     54 H          10.3115   -5.7192    0.0000 H       1  UNL1        0.0569
     55 H           2.8322   -7.2976    0.0000 H       1  UNL1        0.0270
     56 H           5.4476   -8.0178    0.0000 H       1  UNL1        0.0270
     57 H           6.1678   -5.4024    0.0000 H       1  UNL1        0.0270
     58 H           9.8310   -5.0546    0.0000 H       1  UNL1        0.0298
     59 H          10.1117   -7.3236    0.0000 H       1  UNL1        0.0298
     60 H          12.0714   -9.8000    0.0000 H       1  UNL1        0.0641
     61 H           6.5000   -8.1500    0.0000 H       1  UNL1        0.2110
     62 H           5.6907   -8.2609    0.0000 H       1  UNL1        0.0242
     63 H           4.7609  -10.8093    0.0000 H       1  UNL1        0.0242
     64 H           7.3093  -11.7391    0.0000 H       1  UNL1        0.0242
     65 H           2.0572  -12.6823    0.0000 H       1  UNL1        0.0618
     66 H          11.7000  -12.3500    0.0000 H       1  UNL1        0.2102
     67 H          10.9775  -12.3931    0.0000 H       1  UNL1        0.0653
     68 H           6.5313  -16.2679    0.0000 H       1  UNL1        0.0619
@<TRIPOS>BOND
     1    11     1    1
     2     1    16    1
     3     2    14    1
     4     2    25    1
     5     3    16    1
     6     3    27    1
     7     4    17    1
     8     4    31    1
     9    15     5    1
    10     5    61    1
    11     6    19    2
    12     7    25    2
    13     8    31    2
    14    32     9    1
    15     9    66    1
    16    10    35    2
    17    11    12    1
    18    11    14    1
    19    11    15    1
    20    12    13    1
    21    12    19    1
    22    12    39    1
    23    13    18    1
    24    13    20    1
    25    13    26    1
    26    14    17    1
    27    14    28    1
    28    15    23    1
    29    15    25    1
    30    16    19    1
    31    16    21    1
    32    17    18    1
    33    17    40    1
    34    18    41    1
    35    18    42    1
    36    20    27    1
    37    20    31    1
    38    20    43    1
    39    21    22    1
    40    21    30    1
    41    21    44    1
    42    22    24    1
    43    22    29    1
    44    22    45    1
    45    23    24    1
    46    23    46    1
    47    23    47    1
    48    24    48    1
    49    24    49    1
    50    26    50    1
    51    26    51    1
    52    26    52    1
    53    27    53    1
    54    27    54    1
    55    28    55    1
    56    28    56    1
    57    28    57    1
    58    29    33    1
    59    29    34    1
    60    29    35    1
    61    30    32    1
    62    30    58    1
    63    30    59    1
    64    32    33    1
    65    32    60    1
    66    33    36    2
    67    34    62    1
    68    34    63    1
    69    34    64    1
    70    35    37    1
    71    36    38    1
    72    36    65    1
    73    37    38    2
    74    37    67    1
    75    38    68    1
