@<TRIPOS>MOLECULE
IMPHY000725
 60 64 0 0 0
SMALL
GASTEIGER

@<TRIPOS>ATOM
      1 O           7.4248    2.4458    0.0000 O.2     1  UNL1       -0.4303
      2 O           8.7140    3.6025    0.0000 O.2     1  UNL1       -0.2452
      3 C           5.6591   -2.0043    0.0000 C.3     1  UNL1       -0.0343
      4 C           4.7931   -1.5043    0.0000 C.3     1  UNL1       -0.0323
      5 C           6.5251   -1.5043    0.0000 C.3     1  UNL1       -0.0320
      6 C           6.5251   -0.5043    0.0000 C.3     1  UNL1       -0.0221
      7 C           3.8831   -2.0112    0.0000 C.3     1  UNL1       -0.0261
      8 C           3.8751   -3.0528    0.0000 C.3     1  UNL1       -0.0354
      9 C           4.7931   -0.5043    0.0000 C.3     1  UNL1       -0.0489
     10 C           5.6591   -0.0043    0.0000 C.3     1  UNL1       -0.0465
     11 C           7.4714   -0.1996    0.0000 C.3     1  UNL1       -0.0073
     12 C           5.6752   -3.0458    0.0000 C.3     1  UNL1       -0.0494
     13 C           7.4714   -1.8090    0.0000 C.3     1  UNL1       -0.0489
     14 C           4.7771   -3.5736    0.0000 C.3     1  UNL1       -0.0494
     15 C           8.0550   -1.0043    0.0000 C.3     1  UNL1       -0.0453
     16 C           2.9562   -1.4471    0.0000 C.3     1  UNL1       -0.0471
     17 C           2.9396   -3.6025    0.0000 C.3     1  UNL1       -0.0497
     18 C           6.5251    0.4957    0.0000 C.3     1  UNL1       -0.0587
     19 C           3.8908   -1.0112    0.0000 C.3     1  UNL1       -0.0590
     20 C           2.0084   -1.9750    0.0000 C.3     1  UNL1       -0.0525
     21 C           2.0000   -3.0600    0.0000 C.3     1  UNL1       -0.0528
     22 C           7.7820    0.7509    0.0000 C.ar    1  UNL1       -0.0086
     23 C           8.7605    0.9572    0.0000 C.ar    1  UNL1       -0.0486
     24 C           7.1142    1.4952    0.0000 C.ar    1  UNL1        0.0994
     25 C           9.0712    1.9077    0.0000 C.ar    1  UNL1        0.0233
     26 C           8.4034    2.6520    0.0000 C.ar    1  UNL1        0.3367
     27 H           6.3985   -2.4236    0.0000 H       1  UNL1        0.0306
     28 H           5.5292   -1.0793    0.0000 H       1  UNL1        0.0309
     29 H           6.6151   -2.3495    0.0000 H       1  UNL1        0.0309
     30 H           3.8774   -3.6728    0.0000 H       1  UNL1        0.0306
     31 H           4.5810    0.0783    0.0000 H       1  UNL1        0.0268
     32 H           4.1825   -0.6120    0.0000 H       1  UNL1        0.0268
     33 H           6.0576    0.4706    0.0000 H       1  UNL1        0.0271
     34 H           5.2606    0.4706    0.0000 H       1  UNL1        0.0271
     35 H           8.0838   -0.1034    0.0000 H       1  UNL1        0.0355
     36 H           5.8932   -3.6262    0.0000 H       1  UNL1        0.0268
     37 H           6.2843   -2.9303    0.0000 H       1  UNL1        0.0268
     38 H           7.2203   -2.3760    0.0000 H       1  UNL1        0.0268
     39 H           8.0087   -2.1183    0.0000 H       1  UNL1        0.0268
     40 H           4.3798   -4.0496    0.0000 H       1  UNL1        0.0268
     41 H           5.1781   -4.0465    0.0000 H       1  UNL1        0.0268
     42 H           8.5158   -1.4190    0.0000 H       1  UNL1        0.0271
     43 H           8.5158   -0.5896    0.0000 H       1  UNL1        0.0271
     44 H           3.3645   -0.9804    0.0000 H       1  UNL1        0.0271
     45 H           2.5663   -0.9650    0.0000 H       1  UNL1        0.0271
     46 H           2.5423   -4.0785    0.0000 H       1  UNL1        0.0268
     47 H           3.3406   -4.0754    0.0000 H       1  UNL1        0.0268
     48 H           7.1451    0.4957    0.0000 H       1  UNL1        0.0235
     49 H           6.5251    1.1157    0.0000 H       1  UNL1        0.0235
     50 H           5.9051    0.4957    0.0000 H       1  UNL1        0.0235
     51 H           4.5108   -1.0160    0.0000 H       1  UNL1        0.0235
     52 H           3.8956   -0.3912    0.0000 H       1  UNL1        0.0235
     53 H           3.2708   -1.0064    0.0000 H       1  UNL1        0.0235
     54 H           1.8038   -1.3898    0.0000 H       1  UNL1        0.0265
     55 H           1.3967   -2.0764    0.0000 H       1  UNL1        0.0265
     56 H           1.3900   -2.9492    0.0000 H       1  UNL1        0.0265
     57 H           1.7864   -3.6421    0.0000 H       1  UNL1        0.0265
     58 H           9.1746    0.4957    0.0000 H       1  UNL1        0.0623
     59 H           6.5075    1.3674    0.0000 H       1  UNL1        0.1033
     60 H           9.6779    2.0355    0.0000 H       1  UNL1        0.0689
@<TRIPOS>BOND
     1     1    24   ar
     2     1    26   ar
     3     2    26    2
     4     3     4    1
     5     3     5    1
     6     3    12    1
     7     3    27    1
     8     4     7    1
     9     4     9    1
    10     4    28    1
    11     5     6    1
    12     5    13    1
    13     5    29    1
    14     6    10    1
    15     6    11    1
    16     6    18    1
    17     7     8    1
    18     7    16    1
    19     7    19    1
    20     8    14    1
    21     8    17    1
    22     8    30    1
    23     9    10    1
    24     9    31    1
    25     9    32    1
    26    10    33    1
    27    10    34    1
    28    11    15    1
    29    11    22    1
    30    11    35    1
    31    12    14    1
    32    12    36    1
    33    12    37    1
    34    13    15    1
    35    13    38    1
    36    13    39    1
    37    14    40    1
    38    14    41    1
    39    15    42    1
    40    15    43    1
    41    16    20    1
    42    16    44    1
    43    16    45    1
    44    17    21    1
    45    17    46    1
    46    17    47    1
    47    18    48    1
    48    18    49    1
    49    18    50    1
    50    19    51    1
    51    19    52    1
    52    19    53    1
    53    20    21    1
    54    20    54    1
    55    20    55    1
    56    21    56    1
    57    21    57    1
    58    22    23   ar
    59    22    24   ar
    60    23    25   ar
    61    23    58    1
    62    24    59    1
    63    25    26   ar
    64    25    60    1
