@<TRIPOS>MOLECULE
IMPHY015379
 22 22 0 0 0
SMALL
GASTEIGER

@<TRIPOS>ATOM
      1 O           2.8660   -2.6550    0.0000 O.3     1  UNL1       -0.4951
      2 O           3.7320    2.8450    0.0000 O.3     1  UNL1       -0.4804
      3 O           4.5981    1.3450    0.0000 O.2     1  UNL1       -0.2507
      4 C           2.8660    0.3450    0.0000 C.ar    1  UNL1       -0.0365
      5 C           2.8660    1.3450    0.0000 C.3     1  UNL1        0.0699
      6 C           3.7320   -0.1550    0.0000 C.ar    1  UNL1       -0.0546
      7 C           2.0000   -0.1550    0.0000 C.ar    1  UNL1       -0.0546
      8 C           2.8660   -1.6550    0.0000 C.ar    1  UNL1        0.1201
      9 C           3.7320   -1.1550    0.0000 C.ar    1  UNL1       -0.0197
     10 C           2.0000   -1.1550    0.0000 C.ar    1  UNL1       -0.0197
     11 C           3.7320    1.8450    0.0000 C.2     1  UNL1        0.3091
     12 C           2.0000   -3.1550    0.0000 C.3     1  UNL1        0.0788
     13 H           2.6540    1.9276    0.0000 H       1  UNL1        0.0426
     14 H           2.2554    1.2373    0.0000 H       1  UNL1        0.0426
     15 H           4.2690    0.1550    0.0000 H       1  UNL1        0.0622
     16 H           1.4631    0.1550    0.0000 H       1  UNL1        0.0622
     17 H           4.2690   -1.4650    0.0000 H       1  UNL1        0.0654
     18 H           1.4631   -1.4650    0.0000 H       1  UNL1        0.0654
     19 H           1.6900   -2.6181    0.0000 H       1  UNL1        0.0660
     20 H           1.4631   -3.4650    0.0000 H       1  UNL1        0.0660
     21 H           2.3100   -3.6919    0.0000 H       1  UNL1        0.0660
     22 H           4.2690    3.1550    0.0000 H       1  UNL1        0.2951
@<TRIPOS>BOND
     1     1     8    1
     2     1    12    1
     3     2    11    1
     4     2    22    1
     5     3    11    2
     6     4     5    1
     7     4     6   ar
     8     4     7   ar
     9     5    11    1
    10     5    13    1
    11     5    14    1
    12     6     9   ar
    13     6    15    1
    14     7    10   ar
    15     7    16    1
    16     8     9   ar
    17     8    10   ar
    18     9    17    1
    19    10    18    1
    20    12    19    1
    21    12    20    1
    22    12    21    1
