@<TRIPOS>MOLECULE
IMPHY006399
 36 36 0 0 0
SMALL
GASTEIGER

@<TRIPOS>ATOM
      1 CL          7.3997    3.8784    0.0000 Cl      1  UNL1        0.0000
      2 S           0.8987    5.1588    0.0000 S.2     2  UNL2       -0.0273
      3 O           2.6675    7.6904    0.0000 O.3     2  UNL2       -0.3947
      4 N           1.3987    3.6200    0.0000 N.ar    2  UNL2       -0.1903
      5 N           3.1307    0.6200    0.0000 N.ar    2  UNL2       -0.2176
      6 N           3.9968    2.1200    0.0000 N.ar    2  UNL2       -0.2400
      7 N           1.3987    0.6200    0.0000 N.pl3   2  UNL2       -0.3427
      8 C           2.2077    4.2078    0.0000 C.ar    2  UNL2        0.1915
      9 C           1.3987    2.6200    0.0000 C.3     2  UNL2        0.1811
     10 C           1.8987    5.1588    0.0000 C.ar    2  UNL2        0.0636
     11 C           2.4865    5.9679    0.0000 C.3     2  UNL2        0.0079
     12 C           0.5897    4.2078    0.0000 C.ar    2  UNL2        0.2109
     13 C           2.2647    2.1200    0.0000 C.ar    2  UNL2        0.0747
     14 C           3.1588    3.8988    0.0000 C.3     2  UNL2        0.0216
     15 C           2.0797    6.8814    0.0000 C.3     2  UNL2        0.0489
     16 C           2.2647    1.1200    0.0000 C.ar    2  UNL2        0.1289
     17 C           3.1307    2.6200    0.0000 C.ar    2  UNL2        0.0421
     18 C           3.9968    1.1200    0.0000 C.ar    2  UNL2        0.1280
     19 C           4.8628    0.6200    0.0000 C.3     2  UNL2       -0.0046
     20 H           0.7881    2.7277    0.0000 H       2  UNL2        0.1087
     21 H           1.1866    2.0374    0.0000 H       2  UNL2        0.1087
     22 H           2.9172    5.5219    0.0000 H       2  UNL2        0.0343
     23 H           3.0005    6.3146    0.0000 H       2  UNL2        0.0343
     24 H           0.0000    4.0162    0.0000 H       2  UNL2        0.1462
     25 H           2.9672    3.3091    0.0000 H       2  UNL2        0.0336
     26 H           3.7484    3.7072    0.0000 H       2  UNL2        0.0336
     27 H           3.3503    4.4884    0.0000 H       2  UNL2        0.0336
     28 H           1.6490    7.3274    0.0000 H       2  UNL2        0.0560
     29 H           1.5657    6.5347    0.0000 H       2  UNL2        0.0560
     30 H           3.1307    3.2400    0.0000 H       2  UNL2        0.0836
     31 H           1.3987    0.0000    0.0000 H       2  UNL2        0.1437
     32 H           0.8617    0.9300    0.0000 H       2  UNL2        0.1437
     33 H           2.4153    8.2568    0.0000 H       2  UNL2        0.2094
     34 H           4.5528    0.0831    0.0000 H       2  UNL2        0.0308
     35 H           5.3997    0.3100    0.0000 H       2  UNL2        0.0308
     36 H           5.1728    1.1569    0.0000 H       2  UNL2        0.0308
@<TRIPOS>UNITY_ATOM_ATTR
1 1
charge -1
4 1
charge 1
@<TRIPOS>BOND
     1     2    10   ar
     2     2    12   ar
     3     3    15    1
     4     3    33    1
     5     4     8   ar
     6     4     9    1
     7     4    12   ar
     8     5    16   ar
     9     5    18   ar
    10     6    17   ar
    11     6    18   ar
    12     7    16    1
    13     7    31    1
    14     7    32    1
    15     8    10   ar
    16     8    14    1
    17     9    13    1
    18     9    20    1
    19     9    21    1
    20    10    11    1
    21    11    15    1
    22    11    22    1
    23    11    23    1
    24    12    24    1
    25    13    16   ar
    26    13    17   ar
    27    14    25    1
    28    14    26    1
    29    14    27    1
    30    15    28    1
    31    15    29    1
    32    17    30    1
    33    18    19    1
    34    19    34    1
    35    19    35    1
    36    19    36    1
