@<TRIPOS>MOLECULE
IMPHY003660
 20 19 0 0 0
SMALL
GASTEIGER

@<TRIPOS>ATOM
      1 O           7.1962   -1.3100    0.0000 O.2     1  UNL1       -0.2963
      2 C           3.7320    0.6900    0.0000 C.3     1  UNL1       -0.0499
      3 C           2.8660    0.1900    0.0000 C.3     1  UNL1       -0.0556
      4 C           4.5981    0.1900    0.0000 C.3     1  UNL1       -0.0344
      5 C           2.0000    0.6900    0.0000 C.3     1  UNL1       -0.0653
      6 C           5.4641    0.6900    0.0000 C.2     1  UNL1       -0.0810
      7 C           6.3301    0.1900    0.0000 C.2     1  UNL1       -0.0264
      8 C           6.3301   -0.8100    0.0000 C.2     1  UNL1        0.1428
      9 H           4.1306    1.1650    0.0000 H       1  UNL1        0.0268
     10 H           3.3335    1.1650    0.0000 H       1  UNL1        0.0268
     11 H           2.4675   -0.2849    0.0000 H       1  UNL1        0.0263
     12 H           3.2646   -0.2849    0.0000 H       1  UNL1        0.0263
     13 H           4.1996   -0.2849    0.0000 H       1  UNL1        0.0307
     14 H           4.9966   -0.2849    0.0000 H       1  UNL1        0.0307
     15 H           2.3100    1.2269    0.0000 H       1  UNL1        0.0230
     16 H           1.4631    1.0000    0.0000 H       1  UNL1        0.0230
     17 H           1.6900    0.1531    0.0000 H       1  UNL1        0.0230
     18 H           5.4641    1.3100    0.0000 H       1  UNL1        0.0573
     19 H           6.8671    0.5000    0.0000 H       1  UNL1        0.0646
     20 H           5.7932   -1.1200    0.0000 H       1  UNL1        0.1075
@<TRIPOS>BOND
     1     1     8    2
     2     2     3    1
     3     2     4    1
     4     2     9    1
     5     2    10    1
     6     3     5    1
     7     3    11    1
     8     3    12    1
     9     4     6    1
    10     4    13    1
    11     4    14    1
    12     5    15    1
    13     5    16    1
    14     5    17    1
    15     6     7    2
    16     6    18    1
    17     7     8    1
    18     7    19    1
    19     8    20    1
