@<TRIPOS>MOLECULE
IMPHY008351
 55 56 0 0 0
SMALL
GASTEIGER

@<TRIPOS>ATOM
      1 O           2.7320    2.9324    0.0000 O.3     1  UNL1       -0.3848
      2 C           3.7320   -0.5317    0.0000 C.3     1  UNL1       -0.0258
      3 C           4.5981   -1.0317    0.0000 C.3     1  UNL1       -0.0260
      4 C           4.5981   -2.0317    0.0000 C.3     1  UNL1       -0.0080
      5 C           2.8660   -1.0317    0.0000 C.3     1  UNL1       -0.0382
      6 C           3.7320   -2.5317    0.0000 C.3     1  UNL1       -0.0434
      7 C           2.8660   -2.0317    0.0000 C.3     1  UNL1       -0.0492
      8 C           5.4920   -0.4971    0.0000 C.3     1  UNL1       -0.0455
      9 C           3.2320    0.3343    0.0000 C.3     1  UNL1       -0.0442
     10 C           5.4920   -2.5664    0.0000 C.2     1  UNL1       -0.0704
     11 C           4.2320    0.3343    0.0000 C.3     1  UNL1       -0.0590
     12 C           4.5981   -3.0317    0.0000 C.3     1  UNL1       -0.0556
     13 C           6.3981   -1.0109    0.0000 C.3     1  UNL1       -0.0342
     14 C           2.0000   -0.5317    0.0000 C.3     1  UNL1       -0.0619
     15 C           6.3981   -2.0526    0.0000 C.2     1  UNL1       -0.0845
     16 C           3.7320    1.2003    0.0000 C.3     1  UNL1       -0.0201
     17 C           5.4804   -3.5663    0.0000 C.3     1  UNL1       -0.0433
     18 C           3.2320    2.0663    0.0000 C.3     1  UNL1        0.0811
     19 C           2.3660    1.5663    0.0000 C.3     1  UNL1       -0.0325
     20 C           4.0981    2.5663    0.0000 C.2     1  UNL1       -0.0602
     21 C           4.0981    3.5663    0.0000 C.2     1  UNL1       -0.1000
     22 H           4.5933   -0.4118    0.0000 H       1  UNL1        0.0315
     23 H           2.8660   -0.4117    0.0000 H       1  UNL1        0.0303
     24 H           3.3335   -3.0067    0.0000 H       1  UNL1        0.0274
     25 H           4.1306   -3.0067    0.0000 H       1  UNL1        0.0274
     26 H           2.2554   -1.9241    0.0000 H       1  UNL1        0.0268
     27 H           2.6540   -2.6144    0.0000 H       1  UNL1        0.0268
     28 H           5.8856   -0.0181    0.0000 H       1  UNL1        0.0271
     29 H           5.0874   -0.0273    0.0000 H       1  UNL1        0.0271
     30 H           2.7571    0.7328    0.0000 H       1  UNL1        0.0272
     31 H           2.7571   -0.0642    0.0000 H       1  UNL1        0.0272
     32 H           4.7690    0.0243    0.0000 H       1  UNL1        0.0235
     33 H           4.5420    0.8712    0.0000 H       1  UNL1        0.0235
     34 H           3.6951    0.6443    0.0000 H       1  UNL1        0.0235
     35 H           3.9781   -3.0317    0.0000 H       1  UNL1        0.0238
     36 H           4.5981   -3.6517    0.0000 H       1  UNL1        0.0238
     37 H           5.2181   -3.0317    0.0000 H       1  UNL1        0.0238
     38 H           7.0089   -1.1170    0.0000 H       1  UNL1        0.0307
     39 H           6.6071   -0.4272    0.0000 H       1  UNL1        0.0307
     40 H           2.3100    0.0052    0.0000 H       1  UNL1        0.0233
     41 H           1.4631   -0.2217    0.0000 H       1  UNL1        0.0233
     42 H           1.6900   -1.0687    0.0000 H       1  UNL1        0.0233
     43 H           6.9338   -2.3646    0.0000 H       1  UNL1        0.0572
     44 H           4.2070    0.8018    0.0000 H       1  UNL1        0.0296
     45 H           4.2070    1.5988    0.0000 H       1  UNL1        0.0296
     46 H           4.8605   -3.5592    0.0000 H       1  UNL1        0.0275
     47 H           5.4733   -4.1863    0.0000 H       1  UNL1        0.0275
     48 H           6.1004   -3.5735    0.0000 H       1  UNL1        0.0275
     49 H           2.0560    2.1033    0.0000 H       1  UNL1        0.0260
     50 H           1.8291    1.2563    0.0000 H       1  UNL1        0.0260
     51 H           2.6760    1.0294    0.0000 H       1  UNL1        0.0260
     52 H           4.6350    2.2563    0.0000 H       1  UNL1        0.0594
     53 H           3.0420    3.4693    0.0000 H       1  UNL1        0.2106
     54 H           4.6350    3.8763    0.0000 H       1  UNL1        0.0533
     55 H           3.5611    3.8763    0.0000 H       1  UNL1        0.0533
@<TRIPOS>BOND
     1     1    18    1
     2     1    53    1
     3     2     3    1
     4     2     5    1
     5     2     9    1
     6     2    11    1
     7     3     4    1
     8     3     8    1
     9     3    22    1
    10     4     6    1
    11     4    10    1
    12     4    12    1
    13     5     7    1
    14     5    14    1
    15     5    23    1
    16     6     7    1
    17     6    24    1
    18     6    25    1
    19     7    26    1
    20     7    27    1
    21     8    13    1
    22     8    28    1
    23     8    29    1
    24     9    16    1
    25     9    30    1
    26     9    31    1
    27    10    15    2
    28    10    17    1
    29    11    32    1
    30    11    33    1
    31    11    34    1
    32    12    35    1
    33    12    36    1
    34    12    37    1
    35    13    15    1
    36    13    38    1
    37    13    39    1
    38    14    40    1
    39    14    41    1
    40    14    42    1
    41    15    43    1
    42    16    18    1
    43    16    44    1
    44    16    45    1
    45    17    46    1
    46    17    47    1
    47    17    48    1
    48    18    19    1
    49    18    20    1
    50    19    49    1
    51    19    50    1
    52    19    51    1
    53    20    21    2
    54    20    52    1
    55    21    54    1
    56    21    55    1
