@<TRIPOS>MOLECULE
IMPHY005061
 30 33 0 0 0
SMALL
GASTEIGER

@<TRIPOS>ATOM
      1 O           4.9889    1.7552    0.0000 O.2     1  UNL1       -0.2852
      2 O           6.5348   -1.7552    0.0000 O.2     1  UNL1       -0.2852
      3 N           4.6783   -0.8047    0.0000 N.pl3   1  UNL1       -0.3094
      4 N           6.8455    0.8047    0.0000 N.pl3   1  UNL1       -0.3094
      5 C           6.2619    0.0000    0.0000 C.2     1  UNL1        0.1045
      6 C           5.2619    0.0000    0.0000 C.2     1  UNL1        0.1045
      7 C           7.7917   -0.5000    0.0000 C.ar    1  UNL1        0.0447
      8 C           3.7320    0.5000    0.0000 C.ar    1  UNL1        0.0447
      9 C           7.7917    0.5000    0.0000 C.ar    1  UNL1        0.0424
     10 C           3.7320   -0.5000    0.0000 C.ar    1  UNL1        0.0424
     11 C           6.8455   -0.8047    0.0000 C.2     1  UNL1        0.2107
     12 C           4.6783    0.8047    0.0000 C.2     1  UNL1        0.2107
     13 C           8.6577   -1.0000    0.0000 C.ar    1  UNL1       -0.0491
     14 C           2.8660    1.0000    0.0000 C.ar    1  UNL1       -0.0491
     15 C           8.6577    1.0000    0.0000 C.ar    1  UNL1       -0.0398
     16 C           2.8660   -1.0000    0.0000 C.ar    1  UNL1       -0.0398
     17 C           2.0000    0.5000    0.0000 C.ar    1  UNL1       -0.0610
     18 C           9.5238   -0.5000    0.0000 C.ar    1  UNL1       -0.0610
     19 C           2.0000   -0.5000    0.0000 C.ar    1  UNL1       -0.0600
     20 C           9.5238    0.5000    0.0000 C.ar    1  UNL1       -0.0600
     21 H           6.6529    1.3940    0.0000 H       1  UNL1        0.1523
     22 H           4.8709   -1.3940    0.0000 H       1  UNL1        0.1523
     23 H           8.6577   -1.6200    0.0000 H       1  UNL1        0.0625
     24 H           2.8660    1.6200    0.0000 H       1  UNL1        0.0625
     25 H           8.6577    1.6200    0.0000 H       1  UNL1        0.0636
     26 H           2.8660   -1.6200    0.0000 H       1  UNL1        0.0636
     27 H          10.0607   -0.8100    0.0000 H       1  UNL1        0.0618
     28 H           1.4631    0.8100    0.0000 H       1  UNL1        0.0618
     29 H          10.0607    0.8100    0.0000 H       1  UNL1        0.0618
     30 H           1.4631   -0.8100    0.0000 H       1  UNL1        0.0618
@<TRIPOS>BOND
     1     1    12    2
     2     2    11    2
     3     3     6    1
     4     3    10    1
     5     3    22    1
     6     4     5    1
     7     4     9    1
     8     4    21    1
     9     5     6    2
    10     5    11    1
    11     6    12    1
    12     7     9   ar
    13     7    11    1
    14     7    13   ar
    15     8    10   ar
    16     8    12    1
    17     8    14   ar
    18     9    15   ar
    19    10    16   ar
    20    13    18   ar
    21    13    23    1
    22    14    17   ar
    23    14    24    1
    24    15    20   ar
    25    15    25    1
    26    16    19   ar
    27    16    26    1
    28    17    19   ar
    29    17    28    1
    30    18    20   ar
    31    18    27    1
    32    19    30    1
    33    20    29    1
