@<TRIPOS>MOLECULE
IMPHY009634
 98 104 0 0 0
SMALL
GASTEIGER

@<TRIPOS>ATOM
      1 O           4.8518   -1.9314    0.0000 O.3     1  UNL1       -0.3378
      2 O           5.2071    1.8717    0.0000 O.3     1  UNL1       -0.3841
      3 O           2.2570   -2.1815    0.0000 O.3     1  UNL1       -0.3615
      4 O           3.6878    1.4796    0.0000 O.3     1  UNL1       -0.3913
      5 O           4.9838    2.6057    0.0000 O.3     1  UNL1       -0.4556
      6 O           3.1080   -3.8823    0.0000 O.3     1  UNL1       -0.4561
      7 O           6.7159    3.6057    0.0000 O.3     1  UNL1       -0.3876
      8 O           8.9658    3.5121    0.0000 O.3     1  UNL1       -0.3869
      9 O           5.8499    4.1057    0.0000 O.2     1  UNL1       -0.2505
     10 O           4.5141   -4.8937    0.0000 O.2     1  UNL1       -0.2512
     11 N           9.3819    1.0849    0.0000 N.3     1  UNL1       -0.2961
     12 C           5.5180   -0.4692    0.0000 C.3     1  UNL1        0.0869
     13 C           4.9230   -1.3167    0.0000 C.3     1  UNL1        0.0056
     14 C           5.1128    0.4386    0.0000 C.3     1  UNL1        0.0473
     15 C           5.8499    1.1057    0.0000 C.3     1  UNL1        0.1162
     16 C           6.7159    0.6057    0.0000 C.3     1  UNL1       -0.0011
     17 C           3.8924   -1.2173    0.0000 C.3     1  UNL1        0.0270
     18 C           6.5067   -0.3662    0.0000 C.3     1  UNL1       -0.0168
     19 C           3.2524   -2.0855    0.0000 C.3     1  UNL1        0.2092
     20 C           7.5819    1.1057    0.0000 C.3     1  UNL1       -0.0146
     21 C           4.0847    0.5618    0.0000 C.3     1  UNL1        0.0639
     22 C           3.4704   -0.2717    0.0000 C.3     1  UNL1       -0.0180
     23 C           5.8499    2.1057    0.0000 C.3     1  UNL1        0.1582
     24 C           5.3852   -2.2912    0.0000 C.3     1  UNL1       -0.0410
     25 C           7.5819    2.1057    0.0000 C.3     1  UNL1        0.0230
     26 C           6.7159    2.6057    0.0000 C.3     1  UNL1        0.1006
     27 C           3.6920   -3.0705    0.0000 C.3     1  UNL1        0.1567
     28 C           5.9184   -1.4127    0.0000 C.3     1  UNL1       -0.0565
     29 C           4.7656   -3.1740    0.0000 C.3     1  UNL1       -0.0099
     30 C           8.4758    2.6403    0.0000 C.3     1  UNL1        0.0843
     31 C           8.4758    0.5710    0.0000 C.3     1  UNL1        0.0029
     32 C           9.3819    2.1265    0.0000 C.3     1  UNL1        0.0393
     33 C           7.9659    3.5005    0.0000 C.3     1  UNL1       -0.0342
     34 C          10.3131    2.6834    0.0000 C.3     1  UNL1       -0.0344
     35 C          10.3131    0.5279    0.0000 C.3     1  UNL1        0.0019
     36 C          11.2569    1.0632    0.0000 C.3     1  UNL1       -0.0310
     37 C          11.2569    2.1482    0.0000 C.3     1  UNL1       -0.0478
     38 C           4.9838    3.6057    0.0000 C.2     1  UNL1        0.3104
     39 C           3.5191   -4.7939    0.0000 C.2     1  UNL1        0.3044
     40 C          12.1210    0.5598    0.0000 C.3     1  UNL1       -0.0613
     41 C           4.1178    4.1057    0.0000 C.3     1  UNL1        0.0534
     42 C           2.9351   -5.6057    0.0000 C.3     1  UNL1        0.0332
     43 C           4.1178    5.1057    0.0000 C.3     1  UNL1       -0.0432
     44 C           3.2518    3.6057    0.0000 C.3     1  UNL1       -0.0523
     45 C           3.2518    5.6057    0.0000 C.3     1  UNL1       -0.0645
     46 H           4.7664    1.2148    0.0000 H       1  UNL1        0.0383
     47 H           7.4029    0.1052    0.0000 H       1  UNL1        0.0334
     48 H           3.0463   -1.1357    0.0000 H       1  UNL1        0.0361
     49 H           6.5058   -0.9862    0.0000 H       1  UNL1        0.0297
     50 H           7.1232   -0.4322    0.0000 H       1  UNL1        0.0297
     51 H           7.5754    0.2557    0.0000 H       1  UNL1        0.0321
     52 H           3.4687    0.6320    0.0000 H       1  UNL1        0.0598
     53 H           3.0416    0.1761    0.0000 H       1  UNL1        0.0295
     54 H           2.9558   -0.6176    0.0000 H       1  UNL1        0.0295
     55 H           5.8499    2.7257    0.0000 H       1  UNL1        0.0790
     56 H           5.8243   -2.7290    0.0000 H       1  UNL1        0.0273
     57 H           5.8917   -1.9336    0.0000 H       1  UNL1        0.0273
     58 H           8.3213    1.6864    0.0000 H       1  UNL1        0.0358
     59 H           7.2528    2.9157    0.0000 H       1  UNL1        0.0635
     60 H           3.0752   -3.0074    0.0000 H       1  UNL1        0.0788
     61 H           5.8589   -2.0298    0.0000 H       1  UNL1        0.0236
     62 H           6.5356   -1.4722    0.0000 H       1  UNL1        0.0236
     63 H           5.9779   -0.7956    0.0000 H       1  UNL1        0.0236
     64 H           4.6013   -3.7719    0.0000 H       1  UNL1        0.0303
     65 H           5.3265   -3.4381    0.0000 H       1  UNL1        0.0303
     66 H           8.0712    0.1012    0.0000 H       1  UNL1        0.0430
     67 H           8.8695    0.0920    0.0000 H       1  UNL1        0.0430
     68 H           4.5965    1.7640    0.0000 H       1  UNL1        0.2103
     69 H           9.3721    2.9764    0.0000 H       1  UNL1        0.0491
     70 H           2.0000   -2.7457    0.0000 H       1  UNL1        0.2129
     71 H           3.0719    1.5510    0.0000 H       1  UNL1        0.2098
     72 H           8.4992    3.8167    0.0000 H       1  UNL1        0.0258
     73 H           7.6497    4.0338    0.0000 H       1  UNL1        0.0258
     74 H           7.4326    3.1843    0.0000 H       1  UNL1        0.0258
     75 H          10.7067    3.1624    0.0000 H       1  UNL1        0.0281
     76 H           9.9085    3.1532    0.0000 H       1  UNL1        0.0281
     77 H           9.9085    0.0581    0.0000 H       1  UNL1        0.0429
     78 H          10.7067    0.0489    0.0000 H       1  UNL1        0.0429
     79 H           7.2528    3.9157    0.0000 H       1  UNL1        0.2100
     80 H           8.6496    4.0454    0.0000 H       1  UNL1        0.2102
     81 H          11.7944    1.3721    0.0000 H       1  UNL1        0.0310
     82 H          11.8677    2.0421    0.0000 H       1  UNL1        0.0269
     83 H          11.4659    2.7318    0.0000 H       1  UNL1        0.0269
     84 H          11.8089    0.0241    0.0000 H       1  UNL1        0.0233
     85 H          12.6567    0.2478    0.0000 H       1  UNL1        0.0233
     86 H          12.4330    1.0956    0.0000 H       1  UNL1        0.0233
     87 H           4.1178    3.4857    0.0000 H       1  UNL1        0.0410
     88 H           2.4318   -5.2436    0.0000 H       1  UNL1        0.0342
     89 H           2.5730   -6.1090    0.0000 H       1  UNL1        0.0342
     90 H           3.4384   -5.9677    0.0000 H       1  UNL1        0.0342
     91 H           4.7284    4.9980    0.0000 H       1  UNL1        0.0270
     92 H           4.3299    5.6883    0.0000 H       1  UNL1        0.0270
     93 H           2.9418    4.1426    0.0000 H       1  UNL1        0.0238
     94 H           2.7148    3.2957    0.0000 H       1  UNL1        0.0238
     95 H           3.5618    3.0687    0.0000 H       1  UNL1        0.0238
     96 H           3.5618    6.1426    0.0000 H       1  UNL1        0.0230
     97 H           2.7148    5.9157    0.0000 H       1  UNL1        0.0230
     98 H           2.9418    5.0687    0.0000 H       1  UNL1        0.0230
@<TRIPOS>BOND
     1     1    12    1
     2     1    19    1
     3    15     2    1
     4     2    68    1
     5    19     3    1
     6     3    70    1
     7    21     4    1
     8     4    71    1
     9    23     5    1
    10     5    38    1
    11    27     6    1
    12     6    39    1
    13    26     7    1
    14     7    79    1
    15    30     8    1
    16     8    80    1
    17     9    38    2
    18    10    39    2
    19    11    31    1
    20    11    32    1
    21    11    35    1
    22    12    13    1
    23    12    14    1
    24    12    18    1
    25    13    17    1
    26    13    24    1
    27    13    28    1
    28    14    15    1
    29    14    21    1
    30    14    46    1
    31    15    16    1
    32    15    23    1
    33    16    18    1
    34    16    20    1
    35    16    47    1
    36    17    19    1
    37    17    22    1
    38    17    48    1
    39    18    49    1
    40    18    50    1
    41    19    27    1
    42    20    25    1
    43    20    31    1
    44    20    51    1
    45    21    22    1
    46    21    52    1
    47    22    53    1
    48    22    54    1
    49    23    26    1
    50    23    55    1
    51    24    29    1
    52    24    56    1
    53    24    57    1
    54    25    26    1
    55    25    30    1
    56    25    58    1
    57    26    59    1
    58    27    29    1
    59    27    60    1
    60    28    61    1
    61    28    62    1
    62    28    63    1
    63    29    64    1
    64    29    65    1
    65    30    32    1
    66    30    33    1
    67    31    66    1
    68    31    67    1
    69    32    34    1
    70    32    69    1
    71    33    72    1
    72    33    73    1
    73    33    74    1
    74    34    37    1
    75    34    75    1
    76    34    76    1
    77    35    36    1
    78    35    77    1
    79    35    78    1
    80    36    37    1
    81    36    40    1
    82    36    81    1
    83    37    82    1
    84    37    83    1
    85    38    41    1
    86    39    42    1
    87    40    84    1
    88    40    85    1
    89    40    86    1
    90    41    43    1
    91    41    44    1
    92    41    87    1
    93    42    88    1
    94    42    89    1
    95    42    90    1
    96    43    45    1
    97    43    91    1
    98    43    92    1
    99    44    93    1
   100    44    94    1
   101    44    95    1
   102    45    96    1
   103    45    97    1
   104    45    98    1
