@<TRIPOS>MOLECULE
IMPHY001309
 76 83 0 0 0
SMALL
GASTEIGER

@<TRIPOS>ATOM
      1 O           3.9001    2.0051    0.0000 O.3     1  UNL1       -0.3665
      2 O           3.7512   -2.3527    0.0000 O.3     1  UNL1       -0.4602
      3 O           5.4910    3.8875    0.0000 O.3     1  UNL1       -0.3882
      4 O           7.6715    0.3558    0.0000 O.3     1  UNL1       -0.4564
      5 O           4.5649   -4.3812    0.0000 O.2     1  UNL1       -0.2505
      6 O           9.3707   -0.0803    0.0000 O.2     1  UNL1       -0.2505
      7 C           3.7995    0.2229    0.0000 C.3     1  UNL1        0.0491
      8 C           4.1655    1.2229    0.0000 C.3     1  UNL1        0.0033
      9 C           3.7995    2.2229    0.0000 C.3     1  UNL1       -0.0282
     10 C           2.9335    0.7229    0.0000 C.3     1  UNL1        0.0776
     11 C           4.6655    0.7229    0.0000 C.3     1  UNL1       -0.0040
     12 C           4.6655    1.7229    0.0000 C.3     1  UNL1       -0.0213
     13 C           5.4937    1.8090    0.0000 C.3     1  UNL1        0.0713
     14 C           2.9335    1.7229    0.0000 C.3     1  UNL1       -0.0198
     15 C           4.4355   -1.0821    0.0000 C.3     1  UNL1        0.1157
     16 C           5.6118    2.0277    0.0000 C.3     1  UNL1        0.0160
     17 C           5.6118    0.4182    0.0000 C.2     1  UNL1       -0.0654
     18 C           5.8631   -1.3455    0.0000 C.3     1  UNL1        0.0095
     19 C           6.7540    1.0886    0.0000 C.3     1  UNL1       -0.0233
     20 C           6.1954    1.2229    0.0000 C.2     1  UNL1       -0.0240
     21 C           2.3315   -0.0756    0.0000 C.3     1  UNL1       -0.0351
     22 C           6.9229   -0.3533    0.0000 C.3     1  UNL1       -0.0435
     23 C           5.8783    2.9655    0.0000 C.3     1  UNL1        0.0702
     24 C           6.4086    2.2128    0.0000 C.3     1  UNL1       -0.0355
     25 C           6.0489   -2.7766    0.0000 C.3     1  UNL1        0.0598
     26 C           7.1696    1.1849    0.0000 C.3     1  UNL1        0.1283
     27 C           5.9224   -0.5323    0.0000 C.3     1  UNL1       -0.0431
     28 C           6.7767    3.3443    0.0000 C.3     1  UNL1       -0.0233
     29 C           4.7463   -3.3978    0.0000 C.2     1  UNL1        0.3106
     30 C           7.8088    1.9212    0.0000 C.3     1  UNL1        0.0128
     31 C           7.6342    2.8804    0.0000 C.3     1  UNL1       -0.0432
     32 C           4.9160    3.2376    0.0000 C.3     1  UNL1       -0.0355
     33 C           6.9273   -3.2546    0.0000 C.3     1  UNL1       -0.0519
     34 C           8.7002    1.5408    0.0000 C.3     1  UNL1        0.0601
     35 C           8.6156    0.5752    0.0000 C.2     1  UNL1        0.3109
     36 C           9.5579    2.0549    0.0000 C.3     1  UNL1       -0.0519
     37 H           4.4577    2.0211    0.0000 H       1  UNL1        0.0339
     38 H           3.7995    3.0729    0.0000 H       1  UNL1        0.0308
     39 H           4.6655   -0.1271    0.0000 H       1  UNL1        0.0356
     40 H           4.6655    2.5729    0.0000 H       1  UNL1        0.0316
     41 H           2.3229    1.6153    0.0000 H       1  UNL1        0.0296
     42 H           2.7214    2.3055    0.0000 H       1  UNL1        0.0296
     43 H           3.5996   -0.9279    0.0000 H       1  UNL1        0.0744
     44 H           5.0004    2.6182    0.0000 H       1  UNL1        0.0378
     45 H           6.6990   -1.4997    0.0000 H       1  UNL1        0.0344
     46 H           6.9416    1.6795    0.0000 H       1  UNL1        0.0293
     47 H           7.3712    1.0295    0.0000 H       1  UNL1        0.0293
     48 H           2.8266   -0.4488    0.0000 H       1  UNL1        0.0257
     49 H           1.9583   -0.5707    0.0000 H       1  UNL1        0.0257
     50 H           1.8364    0.2977    0.0000 H       1  UNL1        0.0257
     51 H           7.5097   -0.1533    0.0000 H       1  UNL1        0.0270
     52 H           7.2419   -0.8849    0.0000 H       1  UNL1        0.0270
     53 H           6.1583    2.7800    0.0000 H       1  UNL1        0.0257
     54 H           6.9758    2.4631    0.0000 H       1  UNL1        0.0257
     55 H           6.6589    1.6455    0.0000 H       1  UNL1        0.0257
     56 H           6.5604   -2.4261    0.0000 H       1  UNL1        0.0415
     57 H           6.7379    0.4527    0.0000 H       1  UNL1        0.0785
     58 H           6.5118   -0.3397    0.0000 H       1  UNL1        0.0275
     59 H           6.1150   -1.1216    0.0000 H       1  UNL1        0.0275
     60 H           5.3331   -0.7249    0.0000 H       1  UNL1        0.0275
     61 H           6.4142    3.8474    0.0000 H       1  UNL1        0.0293
     62 H           7.1860    3.8099    0.0000 H       1  UNL1        0.0293
     63 H           8.4730    2.4515    0.0000 H       1  UNL1        0.0348
     64 H           7.7999    3.4778    0.0000 H       1  UNL1        0.0270
     65 H           8.2536    2.8523    0.0000 H       1  UNL1        0.0270
     66 H           4.7473    2.6410    0.0000 H       1  UNL1        0.0257
     67 H           4.3194    3.4062    0.0000 H       1  UNL1        0.0257
     68 H           5.0847    3.8342    0.0000 H       1  UNL1        0.0257
     69 H           7.2236   -2.7100    0.0000 H       1  UNL1        0.0238
     70 H           7.4719   -3.5509    0.0000 H       1  UNL1        0.0238
     71 H           6.6310   -3.7992    0.0000 H       1  UNL1        0.0238
     72 H           5.8660    4.3812    0.0000 H       1  UNL1        0.2102
     73 H           9.2258    1.2119    0.0000 H       1  UNL1        0.0415
     74 H           9.2392    2.5867    0.0000 H       1  UNL1        0.0238
     75 H          10.0897    2.3736    0.0000 H       1  UNL1        0.0238
     76 H           9.8767    1.5231    0.0000 H       1  UNL1        0.0238
@<TRIPOS>BOND
     1     1    10    1
     2     1    13    1
     3     2    15    1
     4     2    29    1
     5    23     3    1
     6     3    72    1
     7     4    26    1
     8     4    35    1
     9     5    29    2
    10     6    35    2
    11     7     8    1
    12     7    10    1
    13     7    11    1
    14     7    15    1
    15     8     9    1
    16     8    13    1
    17     8    37    1
    18     9    12    1
    19     9    14    1
    20     9    38    1
    21    10    14    1
    22    10    21    1
    23    11    12    1
    24    11    17    1
    25    11    39    1
    26    12    16    1
    27    12    40    1
    28    13    19    1
    29    13    24    1
    30    14    41    1
    31    14    42    1
    32    15    18    1
    33    15    43    1
    34    16    20    1
    35    16    23    1
    36    16    44    1
    37    17    20    2
    38    17    27    1
    39    18    22    1
    40    18    25    1
    41    18    45    1
    42    19    22    1
    43    19    46    1
    44    19    47    1
    45    20    26    1
    46    21    48    1
    47    21    49    1
    48    21    50    1
    49    22    51    1
    50    22    52    1
    51    23    28    1
    52    23    32    1
    53    24    53    1
    54    24    54    1
    55    24    55    1
    56    25    29    1
    57    25    33    1
    58    25    56    1
    59    26    30    1
    60    26    57    1
    61    27    58    1
    62    27    59    1
    63    27    60    1
    64    28    31    1
    65    28    61    1
    66    28    62    1
    67    30    31    1
    68    30    34    1
    69    30    63    1
    70    31    64    1
    71    31    65    1
    72    32    66    1
    73    32    67    1
    74    32    68    1
    75    33    69    1
    76    33    70    1
    77    33    71    1
    78    34    35    1
    79    34    36    1
    80    34    73    1
    81    36    74    1
    82    36    75    1
    83    36    76    1
