@<TRIPOS>MOLECULE
IMPHY008148
 182 190 0 0 0
SMALL
GASTEIGER

@<TRIPOS>ATOM
      1 O           9.5833    1.2209    0.0000 O.3     1  UNL1       -0.3915
      2 O          11.2861   -4.9693    0.0000 O.3     1  UNL1       -0.3449
      3 O          10.1794    3.6837    0.0000 O.3     1  UNL1       -0.3422
      4 O           9.5541   -4.9693    0.0000 O.3     1  UNL1       -0.3405
      5 O           9.8157    5.3771    0.0000 O.3     1  UNL1       -0.3405
      6 O          11.2861   -6.9693    0.0000 O.3     1  UNL1       -0.3378
      7 O          12.1348    4.1036    0.0000 O.3     1  UNL1       -0.3841
      8 O           9.5541   -7.9693    0.0000 O.3     1  UNL1       -0.3864
      9 O          12.7488    6.0071    0.0000 O.3     1  UNL1       -0.3864
     10 O           7.8220   -6.9693    0.0000 O.3     1  UNL1       -0.3865
     11 O          11.4074    7.4905    0.0000 O.3     1  UNL1       -0.3865
     12 O           8.4743    6.8605    0.0000 O.3     1  UNL1       -0.3460
     13 O          10.4201   -8.4693    0.0000 O.3     1  UNL1       -0.3405
     14 O           6.9560   -5.4693    0.0000 O.3     1  UNL1       -0.3924
     15 O          13.0182   -7.9693    0.0000 O.3     1  UNL1       -0.3841
     16 O          13.0182   -9.9693    0.0000 O.3     1  UNL1       -0.3864
     17 O           8.0094    8.5808    0.0000 O.3     1  UNL1       -0.3405
     18 O          11.2861  -10.9693    0.0000 O.3     1  UNL1       -0.3865
     19 O           6.3111    6.6285    0.0000 O.3     1  UNL1       -0.3378
     20 O           8.6880   -9.4693    0.0000 O.3     1  UNL1       -0.3924
     21 O           5.4220    8.6141    0.0000 O.3     1  UNL1       -0.3864
     22 O           7.8435   10.6628    0.0000 O.3     1  UNL1       -0.3924
     23 O           4.8093    7.4914    0.0000 O.3     1  UNL1       -0.3461
     24 O           5.3148    4.8944    0.0000 O.3     1  UNL1       -0.3841
     25 O           3.3148    4.8901    0.0000 O.3     1  UNL1       -0.3864
     26 O           2.3111    6.6200    0.0000 O.3     1  UNL1       -0.3869
     27 C          12.1872   -0.2690    0.0000 C.3     1  UNL1       -0.0229
     28 C          12.1833    0.7309    0.0000 C.3     1  UNL1       -0.0209
     29 C          11.3231   -0.7724    0.0000 C.3     1  UNL1       -0.0271
     30 C          11.3110   -1.8139    0.0000 C.3     1  UNL1       -0.0252
     31 C          11.3154    1.2276    0.0000 C.3     1  UNL1       -0.0036
     32 C          12.2111   -2.3382    0.0000 C.3     1  UNL1       -0.0278
     33 C          13.0991   -0.7724    0.0000 C.3     1  UNL1       -0.0466
     34 C          11.5208    2.2002    0.0000 C.3     1  UNL1       -0.0063
     35 C          10.4551   -0.2757    0.0000 C.3     1  UNL1       -0.0227
     36 C          10.4513    0.7243    0.0000 C.3     1  UNL1        0.0592
     37 C          12.9178    1.4009    0.0000 C.3     1  UNL1       -0.0464
     38 C          13.1112   -1.8139    0.0000 C.3     1  UNL1       -0.0486
     39 C          12.2237   -3.4232    0.0000 C.3     1  UNL1       -0.0052
     40 C          12.5092    2.3071    0.0000 C.3     1  UNL1       -0.0467
     41 C          10.3611   -2.3382    0.0000 C.3     1  UNL1       -0.0447
     42 C          13.1713   -0.0916    0.0000 C.3     1  UNL1       -0.0588
     43 C          13.1688    0.5611    0.0000 C.3     1  UNL1       -0.0587
     44 C          10.4470   -1.3106    0.0000 C.3     1  UNL1       -0.0590
     45 C          11.2861   -3.9693    0.0000 C.3     1  UNL1        0.0672
     46 C          10.8501    2.9419    0.0000 C.3     1  UNL1        0.0733
     47 C          10.3486   -3.4232    0.0000 C.3     1  UNL1       -0.0255
     48 C          13.2236   -3.4154    0.0000 C.3     1  UNL1       -0.0572
     49 C          12.7303   -4.2853    0.0000 C.3     1  UNL1       -0.0572
     50 C          11.5919    3.6126    0.0000 C.3     1  UNL1       -0.0202
     51 C          10.1084    2.2712    0.0000 C.3     1  UNL1       -0.0354
     52 C          12.5436    3.3056    0.0000 C.3     1  UNL1       -0.0319
     53 C          10.4201   -5.4693    0.0000 C.3     1  UNL1        0.1886
     54 C          10.4864    4.6354    0.0000 C.3     1  UNL1        0.1885
     55 C          10.4201   -6.4693    0.0000 C.3     1  UNL1        0.1406
     56 C          11.4641    4.8454    0.0000 C.3     1  UNL1        0.1341
     57 C          13.2853    3.9764    0.0000 C.2     1  UNL1       -0.0852
     58 C           9.5541   -6.9693    0.0000 C.3     1  UNL1        0.1144
     59 C          11.7711    5.7971    0.0000 C.3     1  UNL1        0.1141
     60 C           8.6880   -5.4693    0.0000 C.3     1  UNL1        0.1130
     61 C          10.1227    6.3288    0.0000 C.3     1  UNL1        0.1134
     62 C           8.6880   -6.4693    0.0000 C.3     1  UNL1        0.1119
     63 C          11.1004    6.5388    0.0000 C.3     1  UNL1        0.1119
     64 C          14.2370    3.6694    0.0000 C.2     1  UNL1       -0.0796
     65 C           9.4520    7.0705    0.0000 C.3     1  UNL1        0.0796
     66 C           7.8220   -4.9693    0.0000 C.3     1  UNL1        0.0730
     67 C          11.2861   -7.9693    0.0000 C.3     1  UNL1        0.1885
     68 C          14.9787    4.3401    0.0000 C.3     1  UNL1       -0.0440
     69 C          14.4470    2.6917    0.0000 C.3     1  UNL1       -0.0440
     70 C          12.1521   -8.4693    0.0000 C.3     1  UNL1        0.1341
     71 C          12.1521   -9.4693    0.0000 C.3     1  UNL1        0.1141
     72 C          10.4201   -9.4693    0.0000 C.3     1  UNL1        0.1130
     73 C          11.2861   -9.9693    0.0000 C.3     1  UNL1        0.1119
     74 C           7.8036    7.6023    0.0000 C.3     1  UNL1        0.1884
     75 C           6.8093    7.4956    0.0000 C.3     1  UNL1        0.1406
     76 C           9.5541   -9.9693    0.0000 C.3     1  UNL1        0.0730
     77 C           6.4006    8.4083    0.0000 C.3     1  UNL1        0.1144
     78 C           7.1423    9.0790    0.0000 C.3     1  UNL1        0.1131
     79 C           7.0357   10.0733    0.0000 C.3     1  UNL1        0.0730
     80 C           5.3111    6.6264    0.0000 C.3     1  UNL1        0.1881
     81 C           4.8130    5.7593    0.0000 C.3     1  UNL1        0.1341
     82 C           3.8130    5.7572    0.0000 C.3     1  UNL1        0.1137
     83 C           3.8093    7.4892    0.0000 C.3     1  UNL1        0.0792
     84 C           3.3111    6.6222    0.0000 C.3     1  UNL1        0.1069
     85 H          12.0576   -1.2002    0.0000 H       1  UNL1        0.0312
     86 H          10.6264    1.7255    0.0000 H       1  UNL1        0.0335
     87 H          12.9505   -2.7576    0.0000 H       1  UNL1        0.0312
     88 H          13.7112   -0.8714    0.0000 H       1  UNL1        0.0271
     89 H          13.3014   -0.1863    0.0000 H       1  UNL1        0.0271
     90 H          11.8234    2.9945    0.0000 H       1  UNL1        0.0332
     91 H           9.8442   -0.1704    0.0000 H       1  UNL1        0.0293
     92 H          10.2453   -0.8591    0.0000 H       1  UNL1        0.0293
     93 H          10.4489    1.3443    0.0000 H       1  UNL1        0.0596
     94 H          13.2851    0.9014    0.0000 H       1  UNL1        0.0271
     95 H          13.4531    1.7137    0.0000 H       1  UNL1        0.0271
     96 H          13.3270   -2.3952    0.0000 H       1  UNL1        0.0268
     97 H          13.7208   -1.7008    0.0000 H       1  UNL1        0.0268
     98 H          13.0980    2.5011    0.0000 H       1  UNL1        0.0269
     99 H          12.3781    2.9131    0.0000 H       1  UNL1        0.0269
    100 H          10.1588   -1.7522    0.0000 H       1  UNL1        0.0271
    101 H           9.7491   -2.4372    0.0000 H       1  UNL1        0.0271
    102 H          13.2813   -0.7018    0.0000 H       1  UNL1        0.0235
    103 H          13.7815    0.0184    0.0000 H       1  UNL1        0.0235
    104 H          13.0613    0.5186    0.0000 H       1  UNL1        0.0235
    105 H          13.0635   -0.0499    0.0000 H       1  UNL1        0.0235
    106 H          13.7798    0.4558    0.0000 H       1  UNL1        0.0235
    107 H          13.2741    1.1721    0.0000 H       1  UNL1        0.0235
    108 H          10.7590   -0.7749    0.0000 H       1  UNL1        0.0235
    109 H           9.9112   -0.9985    0.0000 H       1  UNL1        0.0235
    110 H          10.1349   -1.8464    0.0000 H       1  UNL1        0.0235
    111 H          11.8237   -4.2782    0.0000 H       1  UNL1        0.0602
    112 H           9.7390   -3.3100    0.0000 H       1  UNL1        0.0290
    113 H          10.1328   -4.0044    0.0000 H       1  UNL1        0.0290
    114 H          13.2284   -4.0354    0.0000 H       1  UNL1        0.0236
    115 H          12.1958   -4.5994    0.0000 H       1  UNL1        0.0236
    116 H          13.0444   -4.8198    0.0000 H       1  UNL1        0.0236
    117 H          13.2648   -3.9712    0.0000 H       1  UNL1        0.0236
    118 H          13.8436   -3.4107    0.0000 H       1  UNL1        0.0236
    119 H          13.2188   -2.7955    0.0000 H       1  UNL1        0.0236
    120 H           9.0476    0.9089    0.0000 H       1  UNL1        0.2098
    121 H          11.8818    4.1607    0.0000 H       1  UNL1        0.0296
    122 H          11.1025    3.9933    0.0000 H       1  UNL1        0.0296
    123 H           9.6926    2.7311    0.0000 H       1  UNL1        0.0257
    124 H           9.6485    1.8554    0.0000 H       1  UNL1        0.0257
    125 H          10.5242    1.8114    0.0000 H       1  UNL1        0.0257
    126 H          12.2537    2.7576    0.0000 H       1  UNL1        0.0308
    127 H          13.0329    2.9250    0.0000 H       1  UNL1        0.0308
    128 H          10.9570   -5.7793    0.0000 H       1  UNL1        0.0938
    129 H          10.9023    4.1755    0.0000 H       1  UNL1        0.0938
    130 H          10.4201   -7.0893    0.0000 H       1  UNL1        0.0675
    131 H          12.0703    4.9756    0.0000 H       1  UNL1        0.0671
    132 H          13.1551    4.5825    0.0000 H       1  UNL1        0.0571
    133 H           9.0171   -7.2793    0.0000 H       1  UNL1        0.0648
    134 H          11.9615    6.3871    0.0000 H       1  UNL1        0.0648
    135 H           8.6880   -4.8493    0.0000 H       1  UNL1        0.0647
    136 H           9.5165    6.1986    0.0000 H       1  UNL1        0.0647
    137 H           8.1511   -6.1593    0.0000 H       1  UNL1        0.0647
    138 H          10.6846    6.9987    0.0000 H       1  UNL1        0.0647
    139 H          12.7410    4.2338    0.0000 H       1  UNL1        0.2101
    140 H           9.9771    7.4002    0.0000 H       1  UNL1        0.0587
    141 H           9.2185    7.6449    0.0000 H       1  UNL1        0.0587
    142 H           8.2206   -4.4943    0.0000 H       1  UNL1        0.0584
    143 H           7.4235   -4.4943    0.0000 H       1  UNL1        0.0584
    144 H          10.7492   -7.6593    0.0000 H       1  UNL1        0.0938
    145 H           9.0171   -8.2793    0.0000 H       1  UNL1        0.2100
    146 H          12.9392    6.5971    0.0000 H       1  UNL1        0.2100
    147 H          13.8408    2.5615    0.0000 H       1  UNL1        0.0274
    148 H          14.5772    2.0855    0.0000 H       1  UNL1        0.0274
    149 H          15.3946    3.8802    0.0000 H       1  UNL1        0.0274
    150 H          15.4386    4.7559    0.0000 H       1  UNL1        0.0274
    151 H          15.0532    2.8218    0.0000 H       1  UNL1        0.0274
    152 H          14.5629    4.7999    0.0000 H       1  UNL1        0.0274
    153 H           7.8220   -7.5893    0.0000 H       1  UNL1        0.2100
    154 H          10.9916    7.9504    0.0000 H       1  UNL1        0.2100
    155 H          12.6891   -8.7793    0.0000 H       1  UNL1        0.0671
    156 H           6.4191   -5.1593    0.0000 H       1  UNL1        0.2095
    157 H          12.1521  -10.0893    0.0000 H       1  UNL1        0.0648
    158 H           9.8832   -9.1593    0.0000 H       1  UNL1        0.0647
    159 H          10.7492  -10.2793    0.0000 H       1  UNL1        0.0647
    160 H           7.5826    7.0230    0.0000 H       1  UNL1        0.0938
    161 H          13.0182   -7.3493    0.0000 H       1  UNL1        0.2101
    162 H           7.1481    6.9764    0.0000 H       1  UNL1        0.0675
    163 H           9.1555  -10.4442    0.0000 H       1  UNL1        0.0584
    164 H           9.9526  -10.4442    0.0000 H       1  UNL1        0.0584
    165 H          13.0182  -10.5893    0.0000 H       1  UNL1        0.2100
    166 H           6.2389    9.0068    0.0000 H       1  UNL1        0.0648
    167 H           7.6616    9.4178    0.0000 H       1  UNL1        0.0647
    168 H          10.7492  -11.2793    0.0000 H       1  UNL1        0.2100
    169 H           8.1511   -9.7793    0.0000 H       1  UNL1        0.2095
    170 H           6.7627   10.6300    0.0000 H       1  UNL1        0.0584
    171 H           6.4401    9.9011    0.0000 H       1  UNL1        0.0584
    172 H           5.2292    9.2034    0.0000 H       1  UNL1        0.2100
    173 H           5.6200    7.1640    0.0000 H       1  UNL1        0.0937
    174 H           4.5041    5.2217    0.0000 H       1  UNL1        0.0671
    175 H           7.7773   11.2793    0.0000 H       1  UNL1        0.2095
    176 H           3.1930    5.7559    0.0000 H       1  UNL1        0.0647
    177 H           3.9157    8.1000    0.0000 H       1  UNL1        0.0587
    178 H           3.2262    7.7001    0.0000 H       1  UNL1        0.0587
    179 H           3.0000    7.1584    0.0000 H       1  UNL1        0.0643
    180 H           5.0060    4.3568    0.0000 H       1  UNL1        0.2101
    181 H           2.6948    4.8888    0.0000 H       1  UNL1        0.2100
    182 H           2.0000    7.1563    0.0000 H       1  UNL1        0.2100
@<TRIPOS>BOND
     1    36     1    1
     2     1   120    1
     3    45     2    1
     4    53     2    1
     5    46     3    1
     6    54     3    1
     7     4    53    1
     8     4    60    1
     9     5    54    1
    10     5    61    1
    11    55     6    1
    12    67     6    1
    13    56     7    1
    14     7   139    1
    15    58     8    1
    16     8   145    1
    17    59     9    1
    18     9   146    1
    19    62    10    1
    20    10   153    1
    21    63    11    1
    22    11   154    1
    23    12    65    1
    24    74    12    1
    25    13    67    1
    26    13    72    1
    27    14    66    1
    28    14   156    1
    29    70    15    1
    30    15   161    1
    31    71    16    1
    32    16   165    1
    33    17    74    1
    34    17    78    1
    35    73    18    1
    36    18   168    1
    37    75    19    1
    38    80    19    1
    39    20    76    1
    40    20   169    1
    41    77    21    1
    42    21   172    1
    43    22    79    1
    44    22   175    1
    45    23    80    1
    46    23    83    1
    47    81    24    1
    48    24   180    1
    49    82    25    1
    50    25   181    1
    51    84    26    1
    52    26   182    1
    53    27    28    1
    54    27    29    1
    55    27    33    1
    56    27    42    1
    57    28    31    1
    58    28    37    1
    59    28    43    1
    60    29    30    1
    61    29    35    1
    62    29    85    1
    63    30    32    1
    64    30    41    1
    65    30    44    1
    66    31    34    1
    67    31    36    1
    68    31    86    1
    69    32    38    1
    70    32    39    1
    71    32    87    1
    72    33    38    1
    73    33    88    1
    74    33    89    1
    75    34    40    1
    76    34    46    1
    77    34    90    1
    78    35    36    1
    79    35    91    1
    80    35    92    1
    81    36    93    1
    82    37    40    1
    83    37    94    1
    84    37    95    1
    85    38    96    1
    86    38    97    1
    87    39    45    1
    88    39    48    1
    89    39    49    1
    90    40    98    1
    91    40    99    1
    92    41    47    1
    93    41   100    1
    94    41   101    1
    95    42   102    1
    96    42   103    1
    97    42   104    1
    98    43   105    1
    99    43   106    1
   100    43   107    1
   101    44   108    1
   102    44   109    1
   103    44   110    1
   104    45    47    1
   105    45   111    1
   106    46    50    1
   107    46    51    1
   108    47   112    1
   109    47   113    1
   110    48   114    1
   111    48   118    1
   112    48   119    1
   113    49   115    1
   114    49   116    1
   115    49   117    1
   116    50    52    1
   117    50   121    1
   118    50   122    1
   119    51   123    1
   120    51   124    1
   121    51   125    1
   122    52    57    1
   123    52   126    1
   124    52   127    1
   125    53    55    1
   126    53   128    1
   127    54    56    1
   128    54   129    1
   129    55    58    1
   130    55   130    1
   131    56    59    1
   132    56   131    1
   133    57    64    2
   134    57   132    1
   135    58    62    1
   136    58   133    1
   137    59    63    1
   138    59   134    1
   139    60    62    1
   140    60    66    1
   141    60   135    1
   142    61    63    1
   143    61    65    1
   144    61   136    1
   145    62   137    1
   146    63   138    1
   147    64    68    1
   148    64    69    1
   149    65   140    1
   150    65   141    1
   151    66   142    1
   152    66   143    1
   153    67    70    1
   154    67   144    1
   155    68   149    1
   156    68   150    1
   157    68   152    1
   158    69   147    1
   159    69   148    1
   160    69   151    1
   161    70    71    1
   162    70   155    1
   163    71    73    1
   164    71   157    1
   165    72    73    1
   166    72    76    1
   167    72   158    1
   168    73   159    1
   169    74    75    1
   170    74   160    1
   171    75    77    1
   172    75   162    1
   173    76   163    1
   174    76   164    1
   175    77    78    1
   176    77   166    1
   177    78    79    1
   178    78   167    1
   179    79   170    1
   180    79   171    1
   181    80    81    1
   182    80   173    1
   183    81    82    1
   184    81   174    1
   185    82    84    1
   186    82   176    1
   187    83    84    1
   188    83   177    1
   189    83   178    1
   190    84   179    1
