@<TRIPOS>MOLECULE
IMPHY009560
 46 47 0 0 0
SMALL
GASTEIGER

@<TRIPOS>ATOM
      1 O           7.1485    1.7611    0.0000 O.3     1  UNL1       -0.3382
      2 O           8.9086    1.4824    0.0000 O.3     1  UNL1       -0.4600
      3 O           8.4927   -0.4739    0.0000 O.3     1  UNL1       -0.4886
      4 C           6.3395    1.1733    0.0000 C.3     1  UNL1        0.0629
      5 C           6.6485    0.2223    0.0000 C.3     1  UNL1       -0.0208
      6 C           7.6485    0.2223    0.0000 C.3     1  UNL1        0.0123
      7 C           5.3884    1.4824    0.0000 C.3     1  UNL1       -0.0265
      8 C           7.9575    1.1733    0.0000 C.3     1  UNL1        0.2022
      9 C           4.6453    0.8132    0.0000 C.3     1  UNL1       -0.0507
     10 C           3.6942    1.1222    0.0000 C.3     1  UNL1       -0.0532
     11 C           2.9511    0.4531    0.0000 C.3     1  UNL1       -0.0559
     12 C           9.6517    0.8132    0.0000 C.ar    1  UNL1        0.1653
     13 C           2.0000    0.7621    0.0000 C.3     1  UNL1       -0.0653
     14 C           9.4438   -0.1649    0.0000 C.ar    1  UNL1        0.1620
     15 C          10.6028    1.1222    0.0000 C.ar    1  UNL1       -0.0162
     16 C          10.1869   -0.8341    0.0000 C.ar    1  UNL1       -0.0163
     17 C          11.3459    0.4531    0.0000 C.ar    1  UNL1       -0.0581
     18 C          11.1380   -0.5250    0.0000 C.ar    1  UNL1       -0.0581
     19 C           8.2848   -1.4521    0.0000 C.3     1  UNL1        0.0870
     20 C           7.3338   -1.7611    0.0000 C.3     1  UNL1       -0.0307
     21 H           6.2425    1.7857    0.0000 H       1  UNL1        0.0597
     22 H           6.0420    0.0934    0.0000 H       1  UNL1        0.0292
     23 H           6.7133   -0.3943    0.0000 H       1  UNL1        0.0292
     24 H           7.5837   -0.3943    0.0000 H       1  UNL1        0.0326
     25 H           8.2549    0.0934    0.0000 H       1  UNL1        0.0326
     26 H           5.6795    2.0298    0.0000 H       1  UNL1        0.0290
     27 H           4.8998    1.8641    0.0000 H       1  UNL1        0.0290
     28 H           8.0545    1.7857    0.0000 H       1  UNL1        0.1056
     29 H           4.3542    0.2658    0.0000 H       1  UNL1        0.0266
     30 H           5.1338    0.4315    0.0000 H       1  UNL1        0.0266
     31 H           3.9853    1.6697    0.0000 H       1  UNL1        0.0265
     32 H           3.2056    1.5039    0.0000 H       1  UNL1        0.0265
     33 H           2.6600   -0.0943    0.0000 H       1  UNL1        0.0263
     34 H           3.4396    0.0714    0.0000 H       1  UNL1        0.0263
     35 H           2.1916    1.3518    0.0000 H       1  UNL1        0.0230
     36 H           1.4103    0.9537    0.0000 H       1  UNL1        0.0230
     37 H           1.8084    0.1725    0.0000 H       1  UNL1        0.0230
     38 H          10.7317    1.7287    0.0000 H       1  UNL1        0.0655
     39 H          10.0580   -1.4405    0.0000 H       1  UNL1        0.0655
     40 H          11.9356    0.6447    0.0000 H       1  UNL1        0.0619
     41 H          11.5987   -0.9399    0.0000 H       1  UNL1        0.0619
     42 H           8.3711   -2.0661    0.0000 H       1  UNL1        0.0694
     43 H           8.9044   -1.4737    0.0000 H       1  UNL1        0.0694
     44 H           7.1422   -1.1715    0.0000 H       1  UNL1        0.0262
     45 H           6.7441   -1.9527    0.0000 H       1  UNL1        0.0262
     46 H           7.5254   -2.3508    0.0000 H       1  UNL1        0.0262
@<TRIPOS>BOND
     1     1     4    1
     2     1     8    1
     3     2     8    1
     4     2    12    1
     5     3    14    1
     6     3    19    1
     7     4     5    1
     8     4     7    1
     9     4    21    1
    10     5     6    1
    11     5    22    1
    12     5    23    1
    13     6     8    1
    14     6    24    1
    15     6    25    1
    16     7     9    1
    17     7    26    1
    18     7    27    1
    19     8    28    1
    20     9    10    1
    21     9    29    1
    22     9    30    1
    23    10    11    1
    24    10    31    1
    25    10    32    1
    26    11    13    1
    27    11    33    1
    28    11    34    1
    29    12    14   ar
    30    12    15   ar
    31    13    35    1
    32    13    36    1
    33    13    37    1
    34    14    16   ar
    35    15    17   ar
    36    15    38    1
    37    16    18   ar
    38    16    39    1
    39    17    18   ar
    40    17    40    1
    41    18    41    1
    42    19    20    1
    43    19    42    1
    44    19    43    1
    45    20    44    1
    46    20    45    1
    47    20    46    1
