@<TRIPOS>MOLECULE
IMPHY001197
 54 58 0 0 0
SMALL
GASTEIGER

@<TRIPOS>ATOM
      1 O           6.7975    1.0800    0.0000 O.3     1  UNL1       -0.3699
      2 O           7.4252   -1.7668    0.0000 O.3     1  UNL1       -0.4563
      3 O           4.7789    1.7836    0.0000 O.3     1  UNL1       -0.3888
      4 O           6.5109    2.7836    0.0000 O.3     1  UNL1       -0.3864
      5 O           5.6328   -2.7857    0.0000 O.3     1  UNL1       -0.3875
      6 O           9.1387    0.3191    0.0000 O.3     1  UNL1       -0.3802
      7 O           9.1868   -1.7194    0.0000 O.2     1  UNL1       -0.2479
      8 O           2.0000    0.3229    0.0000 O.2     1  UNL1       -0.2927
      9 C           6.5109   -0.2164    0.0000 C.3     1  UNL1        0.0477
     10 C           5.6449    0.2836    0.0000 C.3     1  UNL1        0.0056
     11 C           7.3770    0.2836    0.0000 C.3     1  UNL1        0.0383
     12 C           4.7349   -0.2233    0.0000 C.3     1  UNL1       -0.0102
     13 C           7.3770    1.2836    0.0000 C.3     1  UNL1        0.1013
     14 C           6.5270   -1.2579    0.0000 C.3     1  UNL1        0.1379
     15 C           5.6449    1.2836    0.0000 C.3     1  UNL1        0.0878
     16 C           6.3975    0.3872    0.0000 C.3     1  UNL1        0.0584
     17 C           4.7269   -1.2648    0.0000 C.3     1  UNL1        0.0159
     18 C           6.5109    1.7836    0.0000 C.3     1  UNL1        0.1102
     19 C           5.6290   -1.7857    0.0000 C.3     1  UNL1        0.0996
     20 C           8.2867   -0.2044    0.0000 C.3     1  UNL1        0.1577
     21 C           3.8081    0.3408    0.0000 C.3     1  UNL1        0.0162
     22 C           4.4001    0.7190    0.0000 C.3     1  UNL1       -0.0582
     23 C           7.8770    2.1496    0.0000 C.3     1  UNL1       -0.0329
     24 C           3.7914   -1.8146    0.0000 C.2     1  UNL1       -0.0632
     25 C           8.3110   -1.2365    0.0000 C.2     1  UNL1        0.3368
     26 C           2.8602   -0.1871    0.0000 C.2     1  UNL1        0.1566
     27 C           2.8518   -1.2721    0.0000 C.2     1  UNL1       -0.0199
     28 C           3.7953   -2.8146    0.0000 C.3     1  UNL1       -0.0430
     29 H           4.9088    0.7086    0.0000 H       1  UNL1        0.0339
     30 H           8.1131    0.7086    0.0000 H       1  UNL1        0.0367
     31 H           6.5337   -2.1079    0.0000 H       1  UNL1        0.0767
     32 H           5.6449    1.9036    0.0000 H       1  UNL1        0.0623
     33 H           5.9704    0.8366    0.0000 H       1  UNL1        0.0567
     34 H           5.8456    0.1048    0.0000 H       1  UNL1        0.0567
     35 H           4.7302   -2.1148    0.0000 H       1  UNL1        0.0377
     36 H           7.0479    2.0936    0.0000 H       1  UNL1        0.0648
     37 H           6.1677   -2.0926    0.0000 H       1  UNL1        0.0636
     38 H           8.8314   -0.5006    0.0000 H       1  UNL1        0.0714
     39 H           4.2163    0.8075    0.0000 H       1  UNL1        0.0351
     40 H           3.4182    0.8229    0.0000 H       1  UNL1        0.0351
     41 H           4.9844    0.9266    0.0000 H       1  UNL1        0.0235
     42 H           4.1926    1.3033    0.0000 H       1  UNL1        0.0235
     43 H           3.8159    0.5115    0.0000 H       1  UNL1        0.0235
     44 H           8.4139    1.8396    0.0000 H       1  UNL1        0.0258
     45 H           8.1870    2.6866    0.0000 H       1  UNL1        0.0258
     46 H           7.3400    2.4596    0.0000 H       1  UNL1        0.0258
     47 H           4.7789    2.4036    0.0000 H       1  UNL1        0.2099
     48 H           7.0479    3.0936    0.0000 H       1  UNL1        0.2100
     49 H           6.1709   -3.0936    0.0000 H       1  UNL1        0.2100
     50 H           2.3137   -1.5800    0.0000 H       1  UNL1        0.0652
     51 H           9.6840    0.0239    0.0000 H       1  UNL1        0.2105
     52 H           3.1753   -2.8170    0.0000 H       1  UNL1        0.0275
     53 H           3.7977   -3.4346    0.0000 H       1  UNL1        0.0275
     54 H           4.4153   -2.8122    0.0000 H       1  UNL1        0.0275
@<TRIPOS>BOND
     1     1    13    1
     2     1    16    1
     3     2    14    1
     4     2    25    1
     5    15     3    1
     6     3    47    1
     7    18     4    1
     8     4    48    1
     9    19     5    1
    10     5    49    1
    11    20     6    1
    12     6    51    1
    13     7    25    2
    14     8    26    2
    15     9    10    1
    16     9    11    1
    17     9    14    1
    18     9    16    1
    19    10    12    1
    20    10    15    1
    21    10    29    1
    22    11    13    1
    23    11    20    1
    24    11    30    1
    25    12    17    1
    26    12    21    1
    27    12    22    1
    28    13    18    1
    29    13    23    1
    30    14    19    1
    31    14    31    1
    32    15    18    1
    33    15    32    1
    34    16    33    1
    35    16    34    1
    36    17    19    1
    37    17    24    1
    38    17    35    1
    39    18    36    1
    40    19    37    1
    41    20    25    1
    42    20    38    1
    43    21    26    1
    44    21    39    1
    45    21    40    1
    46    22    41    1
    47    22    42    1
    48    22    43    1
    49    23    44    1
    50    23    45    1
    51    23    46    1
    52    24    27    2
    53    24    28    1
    54    26    27    1
    55    27    50    1
    56    28    52    1
    57    28    53    1
    58    28    54    1
