@<TRIPOS>MOLECULE
IMPHY005291
 56 58 0 0 0
SMALL
GASTEIGER

@<TRIPOS>ATOM
      1 O           7.1962    2.5000    0.0000 O.3     1  PHE1       -0.3932
      2 O           4.5981    2.0000    0.0000 O.2     1  PHE1       -0.2738
      3 O           2.0000   -0.5000    0.0000 O.2     0  UNK0       -0.2702
      4 N           5.4641    0.5000    0.0000 N.am    1  PHE1       -0.3084
      5 N           3.7320   -0.5000    0.0000 N.am    1  PHE1       -0.2997
      6 CA          6.3301    1.0000    0.0000 C.3     1  PHE1        0.0502
      7 CA          3.7320    0.5000    0.0000 C.3     1  PHE1        0.1036
      8 CB          7.1962    0.5000    0.0000 C.3     1  PHE1       -0.0071
      9 CB          2.8660    1.0000    0.0000 C.3     1  PHE1       -0.0006
     10 C           4.5981    1.0000    0.0000 C.2     1  PHE1        0.2340
     11 C           6.3301    2.0000    0.0000 C.3     1  PHE1        0.0629
     12 CG          8.0622    1.0000    0.0000 C.ar    1  PHE1       -0.0455
     13 CG          2.8660    2.0000    0.0000 C.ar    1  PHE1       -0.0451
     14 CD1         8.9282    0.5000    0.0000 C.ar    1  PHE1       -0.0585
     15 CD2         8.0622    2.0000    0.0000 C.ar    1  PHE1       -0.0585
     16 C           2.8660   -1.0000    0.0000 C.2     0  UNK0        0.2447
     17 CD1         3.7320    2.5000    0.0000 C.ar    1  PHE1       -0.0585
     18 CD2         2.0000    2.5000    0.0000 C.ar    1  PHE1       -0.0585
     19 C           2.8660   -2.0000    0.0000 C.ar    0  UNK0        0.0367
     20 CE1         9.7942    1.0000    0.0000 C.ar    1  PHE1       -0.0615
     21 CE2         8.9282    2.5000    0.0000 C.ar    1  PHE1       -0.0615
     22 CE1         3.7320    3.5000    0.0000 C.ar    1  PHE1       -0.0615
     23 CE2         2.0000    3.5000    0.0000 C.ar    1  PHE1       -0.0615
     24 CZ          9.7942    2.0000    0.0000 C.ar    1  PHE1       -0.0617
     25 CZ          2.8660    4.0000    0.0000 C.ar    1  PHE1       -0.0617
     26 C           2.0000   -2.5000    0.0000 C.ar    0  UNK0       -0.0496
     27 C           3.7320   -2.5000    0.0000 C.ar    0  UNK0       -0.0496
     28 C           2.0000   -3.5000    0.0000 C.ar    0  UNK0       -0.0610
     29 C           3.7320   -3.5000    0.0000 C.ar    0  UNK0       -0.0610
     30 C           2.8660   -4.0000    0.0000 C.ar    0  UNK0       -0.0617
     31 HA          5.7932    1.3100    0.0000 H       1  PHE1        0.0524
     32 HA          4.2690    0.1900    0.0000 H       1  PHE1        0.0598
     33 HB1         6.7976    0.0251    0.0000 H       1  PHE1        0.0332
     34 HB2         7.5947    0.0251    0.0000 H       1  PHE1        0.0332
     35 HB1         2.2554    1.1077    0.0000 H       1  PHE1        0.0336
     36 HB2         2.6540    0.4174    0.0000 H       1  PHE1        0.0336
     37 H           5.4641   -0.1200    0.0000 H       1  PHE1        0.1491
     38 H1          6.1181    2.5826    0.0000 H       1  PHE1        0.0576
     39 H2          5.7196    1.8923    0.0000 H       1  PHE1        0.0576
     40 H           4.2690   -0.8100    0.0000 H       1  PHE1        0.1498
     41 HD1         8.9282   -0.1200    0.0000 H       1  PHE1        0.0620
     42 HD2         7.5252    2.3100    0.0000 H       1  PHE1        0.0620
     43 HD1         4.2690    2.1900    0.0000 H       1  PHE1        0.0620
     44 HD2         1.4631    2.1900    0.0000 H       1  PHE1        0.0620
     45 H           7.1962    3.1200    0.0000 H       1  PHE1        0.2095
     46 HE1        10.3312    0.6900    0.0000 H       1  PHE1        0.0618
     47 HE2         8.9282    3.1200    0.0000 H       1  PHE1        0.0618
     48 HE1         4.2690    3.8100    0.0000 H       1  PHE1        0.0618
     49 HE2         1.4631    3.8100    0.0000 H       1  PHE1        0.0618
     50 HZ         10.3312    2.3100    0.0000 H       1  PHE1        0.0618
     51 HZ          2.8660    4.6200    0.0000 H       1  PHE1        0.0618
     52 H           1.4631   -2.1900    0.0000 H       0  UNK0        0.0625
     53 H           4.2690   -2.1900    0.0000 H       0  UNK0        0.0625
     54 H           1.4631   -3.8100    0.0000 H       0  UNK0        0.0618
     55 H           4.2690   -3.8100    0.0000 H       0  UNK0        0.0618
     56 H           2.8660   -4.6200    0.0000 H       0  UNK0        0.0618
@<TRIPOS>BOND
     1     1    11    1
     2     1    45    1
     3     2    10    2
     4     3    16    2
     5     6     4    1
     6     4    10   am
     7     4    37    1
     8     7     5    1
     9     5    16   am
    10     5    40    1
    11     6     8    1
    12     6    11    1
    13     6    31    1
    14     7     9    1
    15     7    10    1
    16     7    32    1
    17     8    12    1
    18     8    33    1
    19     8    34    1
    20     9    13    1
    21     9    35    1
    22     9    36    1
    23    11    38    1
    24    11    39    1
    25    12    14   ar
    26    12    15   ar
    27    13    17   ar
    28    13    18   ar
    29    14    20   ar
    30    14    41    1
    31    15    21   ar
    32    15    42    1
    33    16    19    1
    34    17    22   ar
    35    17    43    1
    36    18    23   ar
    37    18    44    1
    38    19    26   ar
    39    19    27   ar
    40    20    24   ar
    41    20    46    1
    42    21    24   ar
    43    21    47    1
    44    22    25   ar
    45    22    48    1
    46    23    25   ar
    47    23    49    1
    48    24    50    1
    49    25    51    1
    50    26    28   ar
    51    26    52    1
    52    27    29   ar
    53    27    53    1
    54    28    30   ar
    55    28    54    1
    56    29    30   ar
    57    29    55    1
    58    30    56    1
