@<TRIPOS>MOLECULE
IMPHY001407
 113 115 0 0 0
SMALL
GASTEIGER

@<TRIPOS>ATOM
      1 CL         12.4800   11.8101    0.0000 Cl      1  UNL1        0.0000
      2 O           2.2690    0.3100    0.0000 O.3     2  UNL2       -0.3903
      3 O           3.1350   23.8100    0.0000 O.3     2  UNL2       -0.3903
      4 N           1.4030    2.8100    0.0000 N.3     2  UNL2       -0.3083
      5 N           4.0010   21.3100    0.0000 N.3     2  UNL2       -0.3083
      6 N           8.3312   10.8100    0.0000 N.ar    2  UNL2       -0.1935
      7 C           2.2690    3.3100    0.0000 C.3     2  UNL2        0.0080
      8 C           3.1350   20.8100    0.0000 C.3     2  UNL2        0.0080
      9 C           3.1350    2.8100    0.0000 C.3     2  UNL2       -0.0352
     10 C           2.2690   21.3100    0.0000 C.3     2  UNL2       -0.0352
     11 C           1.4030    1.8100    0.0000 C.3     2  UNL2        0.0310
     12 C           4.0010   22.3100    0.0000 C.3     2  UNL2        0.0310
     13 C           2.2690    1.3100    0.0000 C.3     2  UNL2        0.0703
     14 C           3.1350   22.8100    0.0000 C.3     2  UNL2        0.0703
     15 C           3.1350    1.8100    0.0000 C.3     2  UNL2       -0.0240
     16 C           2.2690   22.3100    0.0000 C.3     2  UNL2       -0.0240
     17 C           2.2690    4.3100    0.0000 C.3     2  UNL2       -0.0375
     18 C           3.1350   19.8100    0.0000 C.3     2  UNL2       -0.0375
     19 C           4.0010   19.3100    0.0000 C.3     2  UNL2       -0.0516
     20 C           3.1350    4.8100    0.0000 C.3     2  UNL2       -0.0516
     21 C           0.5369    1.3100    0.0000 C.3     2  UNL2       -0.0473
     22 C           4.8671   22.8100    0.0000 C.3     2  UNL2       -0.0473
     23 C           4.0010   18.3100    0.0000 C.3     2  UNL2       -0.0530
     24 C           3.1350    5.8100    0.0000 C.3     2  UNL2       -0.0530
     25 C           4.8671   17.8100    0.0000 C.3     2  UNL2       -0.0531
     26 C           4.0010    6.3100    0.0000 C.3     2  UNL2       -0.0531
     27 C           4.8671   16.8100    0.0000 C.3     2  UNL2       -0.0531
     28 C           4.0010    7.3100    0.0000 C.3     2  UNL2       -0.0531
     29 C           5.7331   16.3100    0.0000 C.3     2  UNL2       -0.0531
     30 C           4.8671    7.8100    0.0000 C.3     2  UNL2       -0.0530
     31 C           5.7331   15.3100    0.0000 C.3     2  UNL2       -0.0530
     32 C           4.8671    8.8100    0.0000 C.3     2  UNL2       -0.0528
     33 C           6.5991   14.8100    0.0000 C.3     2  UNL2       -0.0528
     34 C           5.7331    9.3100    0.0000 C.3     2  UNL2       -0.0489
     35 C           6.5991   13.8100    0.0000 C.3     2  UNL2       -0.0488
     36 C           5.7331   10.3100    0.0000 C.3     2  UNL2       -0.0221
     37 C           7.4651   13.3100    0.0000 C.3     2  UNL2       -0.0215
     38 C           7.4651   12.3100    0.0000 C.ar    2  UNL2        0.0243
     39 C           6.5991   10.8100    0.0000 C.ar    2  UNL2        0.0165
     40 C           8.3312   11.8100    0.0000 C.ar    2  UNL2        0.2110
     41 C           6.5991   11.8100    0.0000 C.ar    2  UNL2       -0.0436
     42 C           7.4651   10.3100    0.0000 C.ar    2  UNL2        0.1752
     43 C           9.2774   10.5053    0.0000 C.3     2  UNL2        0.1701
     44 C           9.2774   12.1147    0.0000 C.2     2  UNL2        0.0120
     45 C           9.8610   11.3100    0.0000 C.2     2  UNL2       -0.0132
     46 H           1.7320    3.6200    0.0000 H       2  UNL2        0.0460
     47 H           3.6720   20.5000    0.0000 H       2  UNL2        0.0460
     48 H           3.7456    2.7023    0.0000 H       2  UNL2        0.0281
     49 H           3.3471    3.3926    0.0000 H       2  UNL2        0.0281
     50 H           1.6584   21.4177    0.0000 H       2  UNL2        0.0281
     51 H           2.0569   20.7274    0.0000 H       2  UNL2        0.0281
     52 H           0.8660    2.1200    0.0000 H       2  UNL2        0.0483
     53 H           4.5380   22.0000    0.0000 H       2  UNL2        0.0483
     54 H           2.8059    1.0000    0.0000 H       2  UNL2        0.0609
     55 H           3.6720   23.1200    0.0000 H       2  UNL2        0.0609
     56 H           3.3471    1.2274    0.0000 H       2  UNL2        0.0291
     57 H           3.7456    1.9177    0.0000 H       2  UNL2        0.0291
     58 H           2.0569   22.8926    0.0000 H       2  UNL2        0.0291
     59 H           1.6584   22.2023    0.0000 H       2  UNL2        0.0291
     60 H           2.0569    4.8926    0.0000 H       2  UNL2        0.0280
     61 H           1.6584    4.2023    0.0000 H       2  UNL2        0.0280
     62 H           2.5244   19.9177    0.0000 H       2  UNL2        0.0280
     63 H           2.9230   19.2274    0.0000 H       2  UNL2        0.0280
     64 H           0.8660    3.1200    0.0000 H       2  UNL2        0.1225
     65 H           4.5380   21.0000    0.0000 H       2  UNL2        0.1225
     66 H           4.6116   19.2023    0.0000 H       2  UNL2        0.0266
     67 H           4.2131   19.8926    0.0000 H       2  UNL2        0.0266
     68 H           3.3471    4.2274    0.0000 H       2  UNL2        0.0266
     69 H           3.7456    4.9177    0.0000 H       2  UNL2        0.0266
     70 H           0.2269    1.8469    0.0000 H       2  UNL2        0.0245
     71 H           0.0000    1.0000    0.0000 H       2  UNL2        0.0245
     72 H           0.8469    0.7731    0.0000 H       2  UNL2        0.0245
     73 H           5.1771   22.2731    0.0000 H       2  UNL2        0.0245
     74 H           5.4040   23.1200    0.0000 H       2  UNL2        0.0245
     75 H           4.5571   23.3469    0.0000 H       2  UNL2        0.0245
     76 H           3.3905   18.4177    0.0000 H       2  UNL2        0.0265
     77 H           3.7890   17.7274    0.0000 H       2  UNL2        0.0265
     78 H           2.9230    6.3926    0.0000 H       2  UNL2        0.0265
     79 H           2.5244    5.7023    0.0000 H       2  UNL2        0.0265
     80 H           5.4776   17.7023    0.0000 H       2  UNL2        0.0265
     81 H           5.0791   18.3926    0.0000 H       2  UNL2        0.0265
     82 H           4.2131    5.7274    0.0000 H       2  UNL2        0.0265
     83 H           4.6116    6.4177    0.0000 H       2  UNL2        0.0265
     84 H           2.8059    0.0000    0.0000 H       2  UNL2        0.2098
     85 H           2.5981   24.1200    0.0000 H       2  UNL2        0.2098
     86 H           4.2565   16.9177    0.0000 H       2  UNL2        0.0265
     87 H           4.6550   16.2274    0.0000 H       2  UNL2        0.0265
     88 H           3.7890    7.8926    0.0000 H       2  UNL2        0.0265
     89 H           3.3905    7.2023    0.0000 H       2  UNL2        0.0265
     90 H           6.3437   16.2023    0.0000 H       2  UNL2        0.0265
     91 H           5.9451   16.8926    0.0000 H       2  UNL2        0.0265
     92 H           5.0791    7.2274    0.0000 H       2  UNL2        0.0265
     93 H           5.4776    7.9177    0.0000 H       2  UNL2        0.0265
     94 H           5.1225   15.4177    0.0000 H       2  UNL2        0.0265
     95 H           5.5210   14.7274    0.0000 H       2  UNL2        0.0265
     96 H           4.6550    9.3926    0.0000 H       2  UNL2        0.0265
     97 H           4.2565    8.7023    0.0000 H       2  UNL2        0.0265
     98 H           7.2097   14.7023    0.0000 H       2  UNL2        0.0265
     99 H           6.8112   15.3926    0.0000 H       2  UNL2        0.0265
    100 H           5.9451    8.7274    0.0000 H       2  UNL2        0.0268
    101 H           6.3437    9.4177    0.0000 H       2  UNL2        0.0268
    102 H           5.9885   13.9177    0.0000 H       2  UNL2        0.0268
    103 H           6.3871   13.2274    0.0000 H       2  UNL2        0.0268
    104 H           5.5210   10.8926    0.0000 H       2  UNL2        0.0315
    105 H           5.1225   10.2023    0.0000 H       2  UNL2        0.0315
    106 H           8.0757   13.2023    0.0000 H       2  UNL2        0.0315
    107 H           7.6772   13.8926    0.0000 H       2  UNL2        0.0315
    108 H           6.0622   12.1200    0.0000 H       2  UNL2        0.0627
    109 H           7.4651    9.6900    0.0000 H       2  UNL2        0.1379
    110 H           9.0264    9.9384    0.0000 H       2  UNL2        0.1079
    111 H           9.8148   10.1960    0.0000 H       2  UNL2        0.1079
    112 H           9.4700   12.7041    0.0000 H       2  UNL2        0.0682
    113 H          10.4810   11.3100    0.0000 H       2  UNL2        0.0637
@<TRIPOS>UNITY_ATOM_ATTR
1 1
charge -1
6 1
charge 1
@<TRIPOS>BOND
     1    13     2    1
     2     2    84    1
     3    14     3    1
     4     3    85    1
     5     4     7    1
     6     4    11    1
     7     4    64    1
     8     5     8    1
     9     5    12    1
    10     5    65    1
    11     6    40   ar
    12     6    42   ar
    13     6    43    1
    14     7     9    1
    15     7    17    1
    16     7    46    1
    17     8    10    1
    18     8    18    1
    19     8    47    1
    20     9    15    1
    21     9    48    1
    22     9    49    1
    23    10    16    1
    24    10    50    1
    25    10    51    1
    26    11    13    1
    27    11    21    1
    28    11    52    1
    29    12    14    1
    30    12    22    1
    31    12    53    1
    32    13    15    1
    33    13    54    1
    34    14    16    1
    35    14    55    1
    36    15    56    1
    37    15    57    1
    38    16    58    1
    39    16    59    1
    40    17    20    1
    41    17    60    1
    42    17    61    1
    43    18    19    1
    44    18    62    1
    45    18    63    1
    46    19    23    1
    47    19    66    1
    48    19    67    1
    49    20    24    1
    50    20    68    1
    51    20    69    1
    52    21    70    1
    53    21    71    1
    54    21    72    1
    55    22    73    1
    56    22    74    1
    57    22    75    1
    58    23    25    1
    59    23    76    1
    60    23    77    1
    61    24    26    1
    62    24    78    1
    63    24    79    1
    64    25    27    1
    65    25    80    1
    66    25    81    1
    67    26    28    1
    68    26    82    1
    69    26    83    1
    70    27    29    1
    71    27    86    1
    72    27    87    1
    73    28    30    1
    74    28    88    1
    75    28    89    1
    76    29    31    1
    77    29    90    1
    78    29    91    1
    79    30    32    1
    80    30    92    1
    81    30    93    1
    82    31    33    1
    83    31    94    1
    84    31    95    1
    85    32    34    1
    86    32    96    1
    87    32    97    1
    88    33    35    1
    89    33    98    1
    90    33    99    1
    91    34    36    1
    92    34   100    1
    93    34   101    1
    94    35    37    1
    95    35   102    1
    96    35   103    1
    97    36    39    1
    98    36   104    1
    99    36   105    1
   100    37    38    1
   101    37   106    1
   102    37   107    1
   103    38    40   ar
   104    38    41   ar
   105    39    41   ar
   106    39    42   ar
   107    40    44    1
   108    41   108    1
   109    42   109    1
   110    43    45    1
   111    43   110    1
   112    43   111    1
   113    44    45    2
   114    44   112    1
   115    45   113    1
