@<TRIPOS>MOLECULE
IMPHY009763
 31 32 0 0 0
SMALL
GASTEIGER

@<TRIPOS>ATOM
      1 O           3.4188   -1.7240    0.0000 O.3     1  UNL1       -0.4630
      2 O           2.0000   -2.7174    0.0000 O.2     1  UNL1       -0.2546
      3 C           5.2141   -0.2256    0.0000 C.3     1  UNL1        0.0104
      4 C           4.7363    1.7229    0.0000 C.3     1  UNL1       -0.0232
      5 C           5.4730    0.7403    0.0000 C.3     1  UNL1       -0.0319
      6 C           3.8414   -0.8177    0.0000 C.3     1  UNL1        0.1089
      7 C           6.6131   -0.7345    0.0000 C.3     1  UNL1       -0.0435
      8 C           3.4994    0.1220    0.0000 C.3     1  UNL1       -0.0118
      9 C           6.8719    0.2315    0.0000 C.3     1  UNL1       -0.0490
     10 C           4.9553   -1.1916    0.0000 C.3     1  UNL1       -0.0557
     11 C           4.8409    2.7174    0.0000 C.3     1  UNL1       -0.0589
     12 C           3.8228    2.1296    0.0000 C.3     1  UNL1       -0.0589
     13 C           2.4226   -1.8111    0.0000 C.2     1  UNL1        0.2945
     14 H           5.4589    0.1204    0.0000 H       1  UNL1        0.0307
     15 H           4.2734   -1.2624    0.0000 H       1  UNL1        0.0739
     16 H           6.4182   -1.3230    0.0000 H       1  UNL1        0.0272
     17 H           7.2070   -0.9122    0.0000 H       1  UNL1        0.0272
     18 H           3.3051    0.7108    0.0000 H       1  UNL1        0.0304
     19 H           2.9136   -0.0812    0.0000 H       1  UNL1        0.0304
     20 H           7.4659    0.0537    0.0000 H       1  UNL1        0.0268
     21 H           7.0668    0.8200    0.0000 H       1  UNL1        0.0268
     22 H           4.3564   -1.0311    0.0000 H       1  UNL1        0.0236
     23 H           4.7948   -1.7904    0.0000 H       1  UNL1        0.0236
     24 H           5.5542   -1.3520    0.0000 H       1  UNL1        0.0236
     25 H           4.0750    2.6960    0.0000 H       1  UNL1        0.0235
     26 H           3.2564    2.3818    0.0000 H       1  UNL1        0.0235
     27 H           3.5706    1.5632    0.0000 H       1  UNL1        0.0235
     28 H           5.4575    2.6526    0.0000 H       1  UNL1        0.0235
     29 H           4.9057    3.3340    0.0000 H       1  UNL1        0.0235
     30 H           4.2243    2.7822    0.0000 H       1  UNL1        0.0235
     31 H           2.0670   -1.3032    0.0000 H       1  UNL1        0.1512
@<TRIPOS>BOND
     1     1     6    1
     2     1    13    1
     3     2    13    2
     4     3     4    1
     5     3     6    1
     6     3     7    1
     7     3    10    1
     8     4     5    1
     9     4    11    1
    10     4    12    1
    11     5     8    1
    12     5     9    1
    13     5    14    1
    14     6     8    1
    15     6    15    1
    16     7     9    1
    17     7    16    1
    18     7    17    1
    19     8    18    1
    20     8    19    1
    21     9    20    1
    22     9    21    1
    23    10    22    1
    24    10    23    1
    25    10    24    1
    26    11    28    1
    27    11    29    1
    28    11    30    1
    29    12    25    1
    30    12    26    1
    31    12    27    1
    32    13    31    1
