@<TRIPOS>MOLECULE
IMPHY000983
 46 48 0 0 0
SMALL
GASTEIGER

@<TRIPOS>ATOM
      1 O           7.2441    0.4645    0.0000 O.3     1  UNL1       -0.3612
      2 O           5.7547    2.7970    0.0000 O.3     1  UNL1       -0.4546
      3 O           3.6473    0.2067    0.0000 O.3     1  UNL1       -0.4605
      4 O           5.6688   -2.7788    0.0000 O.3     1  UNL1       -0.2297
      5 O           4.5000    4.0544    0.0000 O.2     1  UNL1       -0.2453
      6 O           6.4120   -3.4480    0.0000 O.3     1  UNL1       -0.2496
      7 O           2.3601    1.3657    0.0000 O.2     1  UNL1       -0.2512
      8 C           6.2925    0.1556    0.0000 C.3     1  UNL1        0.0970
      9 C           6.5004    1.1338    0.0000 C.3     1  UNL1        0.1255
     10 C           5.7573    1.8029    0.0000 C.3     1  UNL1        0.1424
     11 C           4.8062    1.4939    0.0000 C.3     1  UNL1        0.0672
     12 C           7.0357   -0.5135    0.0000 C.3     1  UNL1       -0.0187
     13 C           6.0846   -0.8225    0.0000 C.3     1  UNL1       -0.0332
     14 C           4.5983    0.5157    0.0000 C.3     1  UNL1        0.1172
     15 C           6.8278   -1.4917    0.0000 C.3     1  UNL1       -0.0170
     16 C           4.2240    2.2996    0.0000 C.2     1  UNL1        0.0397
     17 C           5.3415   -0.1534    0.0000 C.3     1  UNL1        0.0085
     18 C           5.8767   -1.8007    0.0000 C.3     1  UNL1        0.1145
     19 C           4.8090    3.1034    0.0000 C.2     1  UNL1        0.3355
     20 C           5.1336   -1.1315    0.0000 C.2     1  UNL1       -0.0418
     21 C           3.3589    2.8011    0.0000 C.2     1  UNL1       -0.0882
     22 C           4.1825   -1.4406    0.0000 C.2     1  UNL1       -0.0968
     23 C           2.6691    0.4146    0.0000 C.2     1  UNL1        0.3042
     24 C           2.0000   -0.3285    0.0000 C.3     1  UNL1        0.0332
     25 H           7.0691    1.7655    0.0000 H       1  UNL1        0.0662
     26 H           6.5334    2.1496    0.0000 H       1  UNL1        0.0769
     27 H           3.9746    1.3182    0.0000 H       1  UNL1        0.0424
     28 H           7.6105   -0.7458    0.0000 H       1  UNL1        0.0295
     29 H           7.3642    0.0123    0.0000 H       1  UNL1        0.0295
     30 H           5.4782   -0.6936    0.0000 H       1  UNL1        0.0258
     31 H           5.9557   -1.4290    0.0000 H       1  UNL1        0.0258
     32 H           6.6911   -0.9514    0.0000 H       1  UNL1        0.0258
     33 H           4.4694   -0.0907    0.0000 H       1  UNL1        0.0744
     34 H           6.9141   -2.1056    0.0000 H       1  UNL1        0.0295
     35 H           7.4474   -1.5133    0.0000 H       1  UNL1        0.0295
     36 H           5.9163   -0.3857    0.0000 H       1  UNL1        0.0347
     37 H           5.6700    0.3724    0.0000 H       1  UNL1        0.0347
     38 H           6.3375   -2.2155    0.0000 H       1  UNL1        0.0675
     39 H           3.3599    3.4211    0.0000 H       1  UNL1        0.0540
     40 H           2.8214    2.4920    0.0000 H       1  UNL1        0.0540
     41 H           3.7218   -1.0257    0.0000 H       1  UNL1        0.0535
     42 H           4.0536   -2.0470    0.0000 H       1  UNL1        0.0535
     43 H           6.2830   -4.0544    0.0000 H       1  UNL1        0.2531
     44 H           1.5392    0.0863    0.0000 H       1  UNL1        0.0342
     45 H           1.5851   -0.7893    0.0000 H       1  UNL1        0.0342
     46 H           2.4608   -0.7434    0.0000 H       1  UNL1        0.0342
@<TRIPOS>BOND
     1     1     8    1
     2     1     9    1
     3     2    10    1
     4     2    19    1
     5    14     3    1
     6     3    23    1
     7     4     6    1
     8    18     4    1
     9     5    19    2
    10     6    43    1
    11     7    23    2
    12     8     9    1
    13     8    12    1
    14     8    13    1
    15     9    10    1
    16     9    25    1
    17    10    11    1
    18    10    26    1
    19    11    14    1
    20    11    16    1
    21    11    27    1
    22    12    15    1
    23    12    28    1
    24    12    29    1
    25    13    30    1
    26    13    31    1
    27    13    32    1
    28    14    17    1
    29    14    33    1
    30    15    18    1
    31    15    34    1
    32    15    35    1
    33    16    19    1
    34    16    21    2
    35    17    20    1
    36    17    36    1
    37    17    37    1
    38    18    20    1
    39    18    38    1
    40    20    22    2
    41    21    39    1
    42    21    40    1
    43    22    41    1
    44    22    42    1
    45    23    24    1
    46    24    44    1
    47    24    45    1
    48    24    46    1
