@<TRIPOS>MOLECULE
IMPHY013904
 62 64 0 0 0
SMALL
GASTEIGER

@<TRIPOS>ATOM
      1 CL          7.7331    4.1550    0.0000 Cl      1  UNL1       -0.0794
      2 CL          4.2690    4.1550    0.0000 Cl      1  UNL1       -0.0794
      3 O           6.8671    0.6550    0.0000 O.3     1  UNL1       -0.3313
      4 O           4.2690   -1.8450    0.0000 O.3     1  UNL1       -0.3405
      5 O           6.0010   -1.8450    0.0000 O.3     1  UNL1       -0.3460
      6 O           7.7331   -1.8450    0.0000 O.3     1  UNL1       -0.3865
      7 O           9.4651   -0.8450    0.0000 O.3     1  UNL1       -0.3864
      8 O           7.7331    2.1550    0.0000 O.3     1  UNL1       -0.4592
      9 O           6.0010   -3.8450    0.0000 O.3     1  UNL1       -0.3841
     10 O           4.2690   -4.8450    0.0000 O.3     1  UNL1       -0.3864
     11 O           2.5369   -3.8450    0.0000 O.3     1  UNL1       -0.3865
     12 O           9.4651    1.1550    0.0000 O.3     1  UNL1       -0.3829
     13 O           2.5369   -0.8450    0.0000 O.3     1  UNL1       -0.3924
     14 O           4.2690    2.1550    0.0000 O.3     1  UNL1       -0.4935
     15 C           6.8671   -0.3450    0.0000 C.3     1  UNL1        0.1144
     16 C           7.7331   -0.8450    0.0000 C.3     1  UNL1        0.1120
     17 C           8.5991   -0.3450    0.0000 C.3     1  UNL1        0.1152
     18 C           5.1350   -3.3450    0.0000 C.3     1  UNL1        0.1341
     19 C           4.2690   -3.8450    0.0000 C.3     1  UNL1        0.1141
     20 C           5.1350   -2.3450    0.0000 C.3     1  UNL1        0.1880
     21 C           3.4030   -3.3450    0.0000 C.3     1  UNL1        0.1119
     22 C           8.5991    0.6550    0.0000 C.3     1  UNL1        0.1454
     23 C           3.4030   -2.3450    0.0000 C.3     1  UNL1        0.1130
     24 C           6.0010   -0.8450    0.0000 C.3     1  UNL1        0.0796
     25 C           7.7331    1.1550    0.0000 C.3     1  UNL1        0.2309
     26 C           2.5369   -1.8450    0.0000 C.3     1  UNL1        0.0730
     27 C           6.8671    2.6550    0.0000 C.ar    1  UNL1        0.1460
     28 C           6.8671    3.6550    0.0000 C.ar    1  UNL1        0.0871
     29 C           6.0010    2.1550    0.0000 C.ar    1  UNL1        0.0248
     30 C           6.0010    4.1550    0.0000 C.ar    1  UNL1       -0.0067
     31 C           5.1350    2.6550    0.0000 C.ar    1  UNL1        0.1421
     32 C           5.1350    3.6550    0.0000 C.ar    1  UNL1        0.0870
     33 C           6.0010    5.1550    0.0000 C.3     1  UNL1       -0.0367
     34 C           3.4030    2.6550    0.0000 C.3     1  UNL1        0.0789
     35 H           6.3301   -0.0350    0.0000 H       1  UNL1        0.0647
     36 H           8.2700   -1.1550    0.0000 H       1  UNL1        0.0647
     37 H           9.1360   -0.0350    0.0000 H       1  UNL1        0.0648
     38 H           5.1350   -3.9650    0.0000 H       1  UNL1        0.0671
     39 H           3.7320   -4.1550    0.0000 H       1  UNL1        0.0648
     40 H           5.1350   -1.7250    0.0000 H       1  UNL1        0.0937
     41 H           3.4030   -3.9650    0.0000 H       1  UNL1        0.0647
     42 H           8.5991    1.2750    0.0000 H       1  UNL1        0.0683
     43 H           3.4030   -1.7250    0.0000 H       1  UNL1        0.0647
     44 H           5.7890   -0.2624    0.0000 H       1  UNL1        0.0587
     45 H           5.3905   -0.9527    0.0000 H       1  UNL1        0.0587
     46 H           7.1962    1.4650    0.0000 H       1  UNL1        0.1084
     47 H           1.9264   -1.7373    0.0000 H       1  UNL1        0.0584
     48 H           2.3249   -2.4276    0.0000 H       1  UNL1        0.0584
     49 H           8.2700   -2.1550    0.0000 H       1  UNL1        0.2100
     50 H          10.0021   -0.5350    0.0000 H       1  UNL1        0.2100
     51 H           6.5380   -3.5350    0.0000 H       1  UNL1        0.2101
     52 H           3.7320   -5.1550    0.0000 H       1  UNL1        0.2100
     53 H           2.0000   -3.5350    0.0000 H       1  UNL1        0.2100
     54 H           9.4651    1.7750    0.0000 H       1  UNL1        0.2102
     55 H           2.0000   -0.5350    0.0000 H       1  UNL1        0.2095
     56 H           6.0010    1.5350    0.0000 H       1  UNL1        0.0692
     57 H           6.6210    5.1550    0.0000 H       1  UNL1        0.0278
     58 H           6.0010    5.7750    0.0000 H       1  UNL1        0.0278
     59 H           5.3810    5.1550    0.0000 H       1  UNL1        0.0278
     60 H           3.7130    3.1919    0.0000 H       1  UNL1        0.0660
     61 H           2.8660    2.9650    0.0000 H       1  UNL1        0.0660
     62 H           3.0930    2.1181    0.0000 H       1  UNL1        0.0660
@<TRIPOS>BOND
     1     1    28    1
     2     2    32    1
     3     3    15    1
     4     3    25    1
     5     4    20    1
     6     4    23    1
     7    20     5    1
     8     5    24    1
     9    16     6    1
    10     6    49    1
    11    17     7    1
    12     7    50    1
    13    25     8    1
    14     8    27    1
    15    18     9    1
    16     9    51    1
    17    19    10    1
    18    10    52    1
    19    21    11    1
    20    11    53    1
    21    22    12    1
    22    12    54    1
    23    13    26    1
    24    13    55    1
    25    14    31    1
    26    14    34    1
    27    15    16    1
    28    15    24    1
    29    15    35    1
    30    16    17    1
    31    16    36    1
    32    17    22    1
    33    17    37    1
    34    18    19    1
    35    18    20    1
    36    18    38    1
    37    19    21    1
    38    19    39    1
    39    20    40    1
    40    21    23    1
    41    21    41    1
    42    22    25    1
    43    22    42    1
    44    23    26    1
    45    23    43    1
    46    24    44    1
    47    24    45    1
    48    25    46    1
    49    26    47    1
    50    26    48    1
    51    27    28   ar
    52    27    29   ar
    53    28    30   ar
    54    29    31   ar
    55    29    56    1
    56    30    32   ar
    57    30    33    1
    58    31    32   ar
    59    33    57    1
    60    33    58    1
    61    33    59    1
    62    34    60    1
    63    34    61    1
    64    34    62    1
