@<TRIPOS>MOLECULE
IMPHY001969
 74 78 0 0 0
SMALL
GASTEIGER

@<TRIPOS>ATOM
      1 O           5.1350   -3.5289    0.0000 O.3     1  UNL1       -0.3313
      2 O          11.2384    4.0235    0.0000 O.3     1  UNL1       -0.3313
      3 O           6.8671   -3.5289    0.0000 O.3     1  UNL1       -0.4606
      4 O           5.1350   -6.5289    0.0000 O.3     1  UNL1       -0.3864
      5 O           3.4030   -5.5289    0.0000 O.3     1  UNL1       -0.3865
      6 O          12.1141    6.5202    0.0000 O.3     1  UNL1       -0.3865
      7 O          13.8423    5.5135    0.0000 O.3     1  UNL1       -0.3864
      8 O          12.0987    2.5202    0.0000 O.3     1  UNL1       -0.4572
      9 O           6.8671   -5.5289    0.0000 O.3     1  UNL1       -0.3829
     10 O          13.8346    3.5135    0.0000 O.3     1  UNL1       -0.3829
     11 O           2.5369   -4.0289    0.0000 O.3     1  UNL1       -0.3924
     12 O          10.3820    6.5269    0.0000 O.3     1  UNL1       -0.3924
     13 O           8.6230   -0.4664    0.0000 O.2     1  UNL1       -0.4507
     14 O          12.0910    0.5202    0.0000 O.3     1  UNL1       -0.5033
     15 O           5.1208   -0.4498    0.0000 O.3     1  UNL1       -0.5058
     16 O           7.7666    2.0369    0.0000 O.3     1  UNL1       -0.5007
     17 O           6.0308    1.0436    0.0000 O.2     1  UNL1       -0.2830
     18 C           5.1350   -5.5289    0.0000 C.3     1  UNL1        0.1152
     19 C           4.2690   -5.0289    0.0000 C.3     1  UNL1        0.1120
     20 C          12.1102    5.5202    0.0000 C.3     1  UNL1        0.1120
     21 C          12.9743    5.0168    0.0000 C.3     1  UNL1        0.1152
     22 C           4.2690   -4.0289    0.0000 C.3     1  UNL1        0.1140
     23 C           6.0010   -5.0289    0.0000 C.3     1  UNL1        0.1454
     24 C          11.2423    5.0235    0.0000 C.3     1  UNL1        0.1140
     25 C          12.9705    4.0169    0.0000 C.3     1  UNL1        0.1454
     26 C           6.0010   -4.0289    0.0000 C.3     1  UNL1        0.2308
     27 C          12.1025    3.5202    0.0000 C.3     1  UNL1        0.2310
     28 C           3.4030   -3.5289    0.0000 C.3     1  UNL1        0.0731
     29 C          10.3782    5.5269    0.0000 C.3     1  UNL1        0.0731
     30 C           6.8671   -2.5289    0.0000 C.ar    1  UNL1        0.1310
     31 C          11.2307    2.0236    0.0000 C.ar    1  UNL1        0.1652
     32 C           7.7671   -2.0046    0.0000 C.ar    1  UNL1        0.0235
     33 C           5.9670   -2.0046    0.0000 C.ar    1  UNL1        0.0226
     34 C          11.2269    1.0236    0.0000 C.ar    1  UNL1        0.1592
     35 C           7.7551   -0.9631    0.0000 C.ar    1  UNL1        0.1465
     36 C          10.3666    2.5269    0.0000 C.ar    1  UNL1       -0.0155
     37 C           6.8910   -0.4597    0.0000 C.ar    1  UNL1        0.1092
     38 C           9.4948    1.0302    0.0000 C.ar    1  UNL1        0.0247
     39 C           5.9790   -0.9631    0.0000 C.ar    1  UNL1        0.1348
     40 C          10.3589    0.5269    0.0000 C.ar    1  UNL1       -0.0057
     41 C           8.6269    0.5336    0.0000 C.ar    1  UNL1        0.1807
     42 C           9.4987    2.0302    0.0000 C.ar    1  UNL1       -0.0473
     43 C           6.8948    0.5403    0.0000 C.ar    1  UNL1        0.2379
     44 C           7.7628    1.0369    0.0000 C.ar    1  UNL1        0.2082
     45 H           5.6720   -5.8389    0.0000 H       1  UNL1        0.0648
     46 H           4.2690   -5.6489    0.0000 H       1  UNL1        0.0647
     47 H          11.5745    5.8322    0.0000 H       1  UNL1        0.0647
     48 H          12.9767    5.6368    0.0000 H       1  UNL1        0.0648
     49 H           6.5380   -4.7189    0.0000 H       1  UNL1        0.0683
     50 H           4.2690   -3.4089    0.0000 H       1  UNL1        0.0647
     51 H          10.7042    4.7156    0.0000 H       1  UNL1        0.0647
     52 H          13.5086    4.3248    0.0000 H       1  UNL1        0.0683
     53 H           6.0010   -3.4089    0.0000 H       1  UNL1        0.1084
     54 H          12.6383    3.2081    0.0000 H       1  UNL1        0.1084
     55 H           3.8015   -3.0540    0.0000 H       1  UNL1        0.0584
     56 H           3.0044   -3.0540    0.0000 H       1  UNL1        0.0584
     57 H           9.7680    5.6369    0.0000 H       1  UNL1        0.0584
     58 H          10.1639    4.9451    0.0000 H       1  UNL1        0.0584
     59 H           4.5981   -6.8389    0.0000 H       1  UNL1        0.2100
     60 H           3.4030   -6.1489    0.0000 H       1  UNL1        0.2100
     61 H          12.6522    6.8281    0.0000 H       1  UNL1        0.2100
     62 H          13.8447    6.1335    0.0000 H       1  UNL1        0.2100
     63 H           6.8671   -6.1489    0.0000 H       1  UNL1        0.2102
     64 H          14.3727    3.8214    0.0000 H       1  UNL1        0.2102
     65 H           2.0000   -3.7189    0.0000 H       1  UNL1        0.2095
     66 H           9.8463    6.8389    0.0000 H       1  UNL1        0.2095
     67 H           8.3064   -2.3105    0.0000 H       1  UNL1        0.0691
     68 H           5.4277   -2.3105    0.0000 H       1  UNL1        0.0691
     69 H          10.3690    3.1469    0.0000 H       1  UNL1        0.0655
     70 H          10.3565   -0.0931    0.0000 H       1  UNL1        0.0662
     71 H           8.9630    2.3423    0.0000 H       1  UNL1        0.0626
     72 H          12.0886   -0.0998    0.0000 H       1  UNL1        0.2923
     73 H           4.5792   -0.7515    0.0000 H       1  UNL1        0.2922
     74 H           7.2309    2.3490    0.0000 H       1  UNL1        0.2924
@<TRIPOS>BOND
     1     1    22    1
     2     1    26    1
     3     2    24    1
     4     2    27    1
     5    26     3    1
     6     3    30    1
     7    18     4    1
     8     4    59    1
     9    19     5    1
    10     5    60    1
    11    20     6    1
    12     6    61    1
    13    21     7    1
    14     7    62    1
    15    27     8    1
    16     8    31    1
    17    23     9    1
    18     9    63    1
    19    25    10    1
    20    10    64    1
    21    11    28    1
    22    11    65    1
    23    12    29    1
    24    12    66    1
    25    13    35   ar
    26    13    41   ar
    27    14    34    1
    28    14    72    1
    29    15    39    1
    30    15    73    1
    31    16    44    1
    32    16    74    1
    33    17    43    2
    34    18    19    1
    35    18    23    1
    36    18    45    1
    37    19    22    1
    38    19    46    1
    39    20    21    1
    40    20    24    1
    41    20    47    1
    42    21    25    1
    43    21    48    1
    44    22    28    1
    45    22    50    1
    46    23    26    1
    47    23    49    1
    48    24    29    1
    49    24    51    1
    50    25    27    1
    51    25    52    1
    52    26    53    1
    53    27    54    1
    54    28    55    1
    55    28    56    1
    56    29    57    1
    57    29    58    1
    58    30    32   ar
    59    30    33   ar
    60    31    34   ar
    61    31    36   ar
    62    32    35   ar
    63    32    67    1
    64    33    39   ar
    65    33    68    1
    66    34    40   ar
    67    35    37   ar
    68    36    42   ar
    69    36    69    1
    70    37    39   ar
    71    37    43   ar
    72    38    40   ar
    73    38    41    1
    74    38    42   ar
    75    40    70    1
    76    41    44   ar
    77    42    71    1
    78    43    44   ar
