@<TRIPOS>MOLECULE
IMPHY007131
 25 25 0 0 0
SMALL
GASTEIGER

@<TRIPOS>ATOM
      1 O           2.8090   -1.8784    0.0000 O.2     1  UNL1       -0.4708
      2 C           3.8968    0.4694    0.0000 C.3     1  UNL1       -0.0213
      3 C           4.8913    0.3649    0.0000 C.3     1  UNL1       -0.0304
      4 C           3.3090   -0.3396    0.0000 C.ar    1  UNL1       -0.0094
      5 C           5.4791    1.1739    0.0000 C.2     1  UNL1       -0.0850
      6 C           6.4736    1.0694    0.0000 C.2     1  UNL1       -0.0796
      7 C           2.3090   -0.3396    0.0000 C.ar    1  UNL1       -0.0207
      8 C           3.6180   -1.2906    0.0000 C.ar    1  UNL1        0.0948
      9 C           7.0614    1.8784    0.0000 C.3     1  UNL1       -0.0440
     10 C           6.8804    0.1559    0.0000 C.3     1  UNL1       -0.0440
     11 C           2.0000   -1.2906    0.0000 C.ar    1  UNL1        0.0919
     12 H           4.0677    1.0654    0.0000 H       1  UNL1        0.0317
     13 H           3.3396    0.7412    0.0000 H       1  UNL1        0.0317
     14 H           4.7204   -0.2311    0.0000 H       1  UNL1        0.0311
     15 H           5.4486    0.0931    0.0000 H       1  UNL1        0.0311
     16 H           5.2269    1.7403    0.0000 H       1  UNL1        0.0572
     17 H           1.9446    0.1620    0.0000 H       1  UNL1        0.0652
     18 H           4.2077   -1.4822    0.0000 H       1  UNL1        0.1032
     19 H           7.5630    1.5140    0.0000 H       1  UNL1        0.0274
     20 H           7.4258    2.3800    0.0000 H       1  UNL1        0.0274
     21 H           6.5598    2.2428    0.0000 H       1  UNL1        0.0274
     22 H           6.3140   -0.0963    0.0000 H       1  UNL1        0.0274
     23 H           7.1325   -0.4105    0.0000 H       1  UNL1        0.0274
     24 H           7.4468    0.4080    0.0000 H       1  UNL1        0.0274
     25 H           1.4103   -1.4822    0.0000 H       1  UNL1        0.1029
@<TRIPOS>BOND
     1     1     8   ar
     2     1    11   ar
     3     2     3    1
     4     2     4    1
     5     2    12    1
     6     2    13    1
     7     3     5    1
     8     3    14    1
     9     3    15    1
    10     4     7   ar
    11     4     8   ar
    12     5     6    2
    13     5    16    1
    14     6     9    1
    15     6    10    1
    16     7    11   ar
    17     7    17    1
    18     8    18    1
    19     9    19    1
    20     9    20    1
    21     9    21    1
    22    10    22    1
    23    10    23    1
    24    10    24    1
    25    11    25    1
