@<TRIPOS>MOLECULE
IMPHY008835
 75 82 0 0 0
SMALL
GASTEIGER
****
Created with ChemWriter - http://chemwriter.com
@<TRIPOS>ATOM
      1 O           8.3618   -6.5186    0.0000 O.3     1  UNL1       -0.3334
      2 O           8.0091   -3.7526    0.0000 O.3     1  UNL1       -0.2232
      3 O           3.4326   -1.5264    0.0000 O.3     1  UNL1       -0.3312
      4 O           6.7928   -6.6061    0.0000 O.3     1  UNL1       -0.3257
      5 O           2.9927   -0.1869    0.0000 O.3     1  UNL1       -0.3257
      6 O           4.9811   -1.0211    0.0000 O.3     1  UNL1       -0.3231
      7 O           8.2037   -8.2395    0.0000 O.3     1  UNL1       -0.2149
      8 O           5.3217    0.5668    0.0000 O.3     1  UNL1       -0.2175
      9 O           6.7928   -9.0520    0.0000 O.3     1  UNL1       -0.2174
     10 O           5.9256    0.0282    0.0000 O.3     1  UNL1       -0.3256
     11 O           4.1097    1.6648    0.0000 O.3     1  UNL1       -0.2176
     12 O           5.3777   -8.2395    0.0000 O.3     1  UNL1       -0.2176
     13 O           4.3618   -7.0186    0.0000 O.3     1  UNL1       -0.3259
     14 O           6.1931   -2.1142    0.0000 O.3     1  UNL1       -0.2149
     15 O           2.7294    1.9522    0.0000 O.3     1  UNL1       -0.2176
     16 O           7.7458   -1.6083    0.0000 O.3     1  UNL1       -0.2174
     17 O           8.0822   -0.0204    0.0000 O.3     1  UNL1       -0.2176
     18 O           2.7926   -6.9270    0.0000 O.3     1  UNL1       -0.3257
     19 O           7.6465    1.3288    0.0000 O.3     1  UNL1       -0.2176
     20 O           4.2035   -5.2936    0.0000 O.3     1  UNL1       -0.2149
     21 O           2.7926   -4.4811    0.0000 O.3     1  UNL1       -0.2174
     22 O           1.3776   -5.2936    0.0000 O.3     1  UNL1       -0.2176
     23 C           6.2882   -5.0520    0.0000 C.3     1  UNL1        0.0024
     24 C           5.2486   -3.1648    0.0000 C.3     1  UNL1        0.0002
     25 C           5.6843   -4.5072    0.0000 C.3     1  UNL1        0.0002
     26 C           5.8567   -3.7096    0.0000 C.3     1  UNL1        0.0025
     27 C           7.0645   -4.8032    0.0000 C.3     1  UNL1        0.0327
     28 C           4.4764   -3.4136    0.0000 C.3     1  UNL1        0.0023
     29 C           7.5451   -5.4603    0.0000 C.3     1  UNL1        0.0275
     30 C           3.8642   -2.8688    0.0000 C.3     1  UNL1        0.0251
     31 C           7.2369   -4.0055    0.0000 C.3     1  UNL1        0.1520
     32 C           6.6288   -3.4566    0.0000 C.3     1  UNL1        0.0329
     33 C           6.2882   -5.8645    0.0000 C.3     1  UNL1        0.0002
     34 C           4.9080   -4.7602    0.0000 C.3     1  UNL1        0.0000
     35 C           8.3618   -5.4603    0.0000 C.3     1  UNL1        0.0957
     36 C           4.3040   -4.2113    0.0000 C.3     1  UNL1        0.0001
     37 C           5.4168   -2.3630    0.0000 C.3     1  UNL1        0.0025
     38 C           7.0645   -6.1174    0.0000 C.3     1  UNL1        0.0024
     39 C           4.0365   -2.0711    0.0000 C.3     1  UNL1        0.1177
     40 C           5.5463   -5.3854    0.0000 C.3     1  UNL1        0.0001
     41 C           4.8087   -1.8182    0.0000 C.3     1  UNL1        0.0296
     42 C           6.0249   -2.9119    0.0000 C.3     1  UNL1        0.0000
     43 C           3.1093   -2.5631    0.0000 C.3     1  UNL1        0.0024
     44 C           3.4351   -3.5622    0.0000 C.3     1  UNL1        0.0024
     45 C           9.2409   -5.4603    0.0000 C.3     1  UNL1        0.0319
     46 C           8.3618   -4.6436    0.0000 C.3     1  UNL1        0.0297
     47 C           7.4961   -7.0186    0.0000 C.3     1  UNL1        0.2693
     48 C           3.6008   -0.7255    0.0000 C.3     1  UNL1        0.2661
     49 C           4.3772   -0.4826    0.0000 C.3     1  UNL1        0.2066
     50 C           7.4961   -7.8311    0.0000 C.3     1  UNL1        0.2406
     51 C           9.6451   -6.1678    0.0000 C.3     1  UNL1        0.0278
     52 C           4.5454    0.3198    0.0000 C.3     1  UNL1        0.2166
     53 C           6.7928   -8.2395    0.0000 C.3     1  UNL1        0.2198
     54 C           3.1651    0.6155    0.0000 C.3     1  UNL1        0.1835
     55 C           6.0852   -7.0186    0.0000 C.3     1  UNL1        0.1802
     56 C           3.9373    0.8625    0.0000 C.3     1  UNL1        0.2143
     57 C           6.0852   -7.8311    0.0000 C.3     1  UNL1        0.2143
     58 C           9.2409   -6.8712    0.0000 C.2     1  UNL1       -0.0345
     59 C           5.7574   -0.7741    0.0000 C.3     1  UNL1        0.2696
     60 C           5.2235   -6.5145    0.0000 C.3     1  UNL1        0.1770
     61 C           2.5570    1.1582    0.0000 C.3     1  UNL1        0.2142
     62 C           6.3613   -1.3168    0.0000 C.3     1  UNL1        0.2406
     63 C           9.6451   -7.5787    0.0000 C.2     1  UNL1       -0.0482
     64 C           7.1377   -1.0698    0.0000 C.3     1  UNL1        0.2198
     65 C           6.7020    0.2711    0.0000 C.3     1  UNL1        0.1835
     66 C           7.3059   -0.2675    0.0000 C.3     1  UNL1        0.2144
     67 C           3.4960   -6.5145    0.0000 C.3     1  UNL1        0.2695
     68 C           9.2409   -8.2821    0.0000 C.3     1  UNL1        0.0217
     69 C           6.8743    1.0734    0.0000 C.3     1  UNL1        0.2142
     70 C          10.4618   -7.5787    0.0000 C.3     1  UNL1        0.0260
     71 C           3.4960   -5.7020    0.0000 C.3     1  UNL1        0.2406
     72 C           2.7926   -5.2936    0.0000 C.3     1  UNL1        0.2198
     73 C           2.0851   -5.7020    0.0000 C.3     1  UNL1        0.2143
     74 C           2.0851   -6.5145    0.0000 C.3     1  UNL1        0.1803
     75 C           9.6549   -8.9957    0.0000 C.3     1  UNL1        0.0047
@<TRIPOS>BOND
     1     3    39    1
     2     4    47    1
     3     4    55    1
     4     5    48    1
     5     5    54    1
     6    10    59    1
     7    10    65    1
     8    13    60    1
     9    15    61    1
    10    18    67    1
    11    18    74    1
    12    19    69    1
    13    23    25    1
    14    23    27    1
    15    23    33    1
    16    23    40    1
    17    24    26    1
    18    24    28    1
    19    24    37    1
    20    24    42    1
    21    25    26    1
    22    25    34    1
    23    26    32    1
    24    27    29    1
    25    27    31    1
    26    28    30    1
    27    28    36    1
    28    29    35    1
    29    29    38    1
    30    30    39    1
    31    30    43    1
    32    30    44    1
    33    31     2    1
    34    31    32    1
    35    33    38    1
    36    34    36    1
    37    35     1    1
    38    35    45    1
    39    35    46    1
    40    37    41    1
    41    39    41    1
    42    45    51    1
    43    47     1    1
    44    47    50    1
    45    48     3    1
    46    48    49    1
    47    49     6    1
    48    49    52    1
    49    50     7    1
    50    50    53    1
    51    51    58    1
    52    52     8    1
    53    52    56    1
    54    53     9    1
    55    53    57    1
    56    54    56    1
    57    54    61    1
    58    55    57    1
    59    55    60    1
    60    56    11    1
    61    57    12    1
    62    58    63    2
    63    59     6    1
    64    59    62    1
    65    62    14    1
    66    62    64    1
    67    63    68    1
    68    63    70    1
    69    64    16    1
    70    64    66    1
    71    65    66    1
    72    65    69    1
    73    66    17    1
    74    67    13    1
    75    67    71    1
    76    68    75    1
    77    71    20    1
    78    71    72    1
    79    72    21    1
    80    72    73    1
    81    73    22    1
    82    73    74    1
