@<TRIPOS>MOLECULE
IMPHY005029
 31 31 0 0 0
SMALL
GASTEIGER

@<TRIPOS>ATOM
      1 O           2.8660    2.1550    0.0000 O.3     1  UNL1       -0.4913
      2 O           6.3301    2.1550    0.0000 O.3     1  UNL1       -0.4913
      3 O           2.8660   -2.8450    0.0000 O.3     1  UNL1       -0.3950
      4 O           4.5981    3.1550    0.0000 O.3     1  UNL1       -0.5009
      5 C           4.5981   -0.8450    0.0000 C.3     1  UNL1       -0.0254
      6 C           4.5981    0.1550    0.0000 C.ar    1  UNL1       -0.0401
      7 C           3.7320   -1.3450    0.0000 C.3     1  UNL1       -0.0257
      8 C           5.4641    0.6550    0.0000 C.ar    1  UNL1       -0.0129
      9 C           3.7320    0.6550    0.0000 C.ar    1  UNL1       -0.0129
     10 C           3.7320   -2.3450    0.0000 C.3     1  UNL1        0.0445
     11 C           3.7320    1.6550    0.0000 C.ar    1  UNL1        0.1652
     12 C           5.4641    1.6550    0.0000 C.ar    1  UNL1        0.1652
     13 C           4.5981    2.1550    0.0000 C.ar    1  UNL1        0.2010
     14 C           2.0000    1.6550    0.0000 C.3     1  UNL1        0.0790
     15 C           7.1962    1.6550    0.0000 C.3     1  UNL1        0.0790
     16 H           4.8101   -1.4276    0.0000 H       1  UNL1        0.0314
     17 H           5.2087   -0.7373    0.0000 H       1  UNL1        0.0314
     18 H           3.5200   -0.7624    0.0000 H       1  UNL1        0.0290
     19 H           3.1215   -1.4527    0.0000 H       1  UNL1        0.0290
     20 H           6.0010    0.3450    0.0000 H       1  UNL1        0.0658
     21 H           3.1951    0.3450    0.0000 H       1  UNL1        0.0658
     22 H           3.9441   -2.9276    0.0000 H       1  UNL1        0.0557
     23 H           4.3426   -2.2373    0.0000 H       1  UNL1        0.0557
     24 H           2.8660   -3.4650    0.0000 H       1  UNL1        0.2094
     25 H           5.1350    3.4650    0.0000 H       1  UNL1        0.2924
     26 H           1.6900    2.1919    0.0000 H       1  UNL1        0.0660
     27 H           1.4631    1.3450    0.0000 H       1  UNL1        0.0660
     28 H           2.3100    1.1181    0.0000 H       1  UNL1        0.0660
     29 H           6.8862    1.1181    0.0000 H       1  UNL1        0.0660
     30 H           7.7331    1.3450    0.0000 H       1  UNL1        0.0660
     31 H           7.5062    2.1919    0.0000 H       1  UNL1        0.0660
@<TRIPOS>BOND
     1     1    11    1
     2     1    14    1
     3     2    12    1
     4     2    15    1
     5     3    10    1
     6     3    24    1
     7     4    13    1
     8     4    25    1
     9     5     6    1
    10     5     7    1
    11     5    16    1
    12     5    17    1
    13     6     8   ar
    14     6     9   ar
    15     7    10    1
    16     7    18    1
    17     7    19    1
    18     8    12   ar
    19     8    20    1
    20     9    11   ar
    21     9    21    1
    22    10    22    1
    23    10    23    1
    24    11    13   ar
    25    12    13   ar
    26    14    26    1
    27    14    27    1
    28    14    28    1
    29    15    29    1
    30    15    30    1
    31    15    31    1
