@<TRIPOS>MOLECULE
IMPHY012409
 51 52 0 0 0
SMALL
GASTEIGER

@<TRIPOS>ATOM
      1 O           6.6270    1.4145    0.0000 O.3     1  UNL1       -0.4612
      2 O           7.2194   -0.2131    0.0000 O.2     1  UNL1       -0.2508
      3 N           9.1390    4.0116    0.0000 N.3     1  UNL1       -0.2992
      4 C           9.8756    3.0290    0.0000 C.3     1  UNL1        0.0138
      5 C           9.6168    2.0630    0.0000 C.3     1  UNL1        0.0138
      6 C          11.2745    2.5201    0.0000 C.3     1  UNL1       -0.0358
      7 C          11.0157    1.5542    0.0000 C.3     1  UNL1       -0.0358
      8 C           7.8423    2.7178    0.0000 C.3     1  UNL1        0.0000
      9 C           8.3957    1.1974    0.0000 C.3     1  UNL1        0.0000
     10 C           7.5667    1.7566    0.0000 C.3     1  UNL1        0.1059
     11 C           8.6390    4.8776    0.0000 C.3     1  UNL1       -0.0122
     12 C           6.4534    0.4297    0.0000 C.2     1  UNL1        0.3073
     13 C           5.5137    0.0877    0.0000 C.3     1  UNL1        0.0449
     14 C           5.3400   -0.8971    0.0000 C.3     1  UNL1       -0.0430
     15 C           4.4003   -1.2391    0.0000 C.3     1  UNL1       -0.0526
     16 C           4.2267   -2.2239    0.0000 C.3     1  UNL1       -0.0530
     17 C           3.2870   -2.5660    0.0000 C.3     1  UNL1       -0.0531
     18 C           3.1133   -3.5508    0.0000 C.3     1  UNL1       -0.0533
     19 C           2.1736   -3.8928    0.0000 C.3     1  UNL1       -0.0559
     20 C           2.0000   -4.8776    0.0000 C.3     1  UNL1       -0.0653
     21 H          10.2449    3.5269    0.0000 H       1  UNL1        0.0464
     22 H           9.6996    1.4486    0.0000 H       1  UNL1        0.0464
     23 H          11.8685    2.3424    0.0000 H       1  UNL1        0.0281
     24 H          11.4695    3.1087    0.0000 H       1  UNL1        0.0281
     25 H          10.8208    0.9656    0.0000 H       1  UNL1        0.0281
     26 H          11.6097    1.3764    0.0000 H       1  UNL1        0.0281
     27 H           7.8373    3.3378    0.0000 H       1  UNL1        0.0316
     28 H           7.2280    2.8016    0.0000 H       1  UNL1        0.0316
     29 H           7.9899    0.7286    0.0000 H       1  UNL1        0.0316
     30 H           8.8124    0.7382    0.0000 H       1  UNL1        0.0316
     31 H           7.1133    2.1794    0.0000 H       1  UNL1        0.0735
     32 H           9.1759    5.1876    0.0000 H       1  UNL1        0.0391
     33 H           8.3290    5.4145    0.0000 H       1  UNL1        0.0391
     34 H           8.1020    4.5676    0.0000 H       1  UNL1        0.0391
     35 H           5.4060    0.6983    0.0000 H       1  UNL1        0.0377
     36 H           4.8937    0.0877    0.0000 H       1  UNL1        0.0377
     37 H           5.4477   -1.5077    0.0000 H       1  UNL1        0.0270
     38 H           5.9600   -0.8971    0.0000 H       1  UNL1        0.0270
     39 H           4.2927   -0.6285    0.0000 H       1  UNL1        0.0265
     40 H           3.7803   -1.2391    0.0000 H       1  UNL1        0.0265
     41 H           4.3343   -2.8345    0.0000 H       1  UNL1        0.0265
     42 H           4.8467   -2.2239    0.0000 H       1  UNL1        0.0265
     43 H           3.1793   -1.9554    0.0000 H       1  UNL1        0.0265
     44 H           2.6670   -2.5660    0.0000 H       1  UNL1        0.0265
     45 H           3.2210   -4.1613    0.0000 H       1  UNL1        0.0265
     46 H           3.7333   -3.5508    0.0000 H       1  UNL1        0.0265
     47 H           2.0660   -3.2822    0.0000 H       1  UNL1        0.0263
     48 H           1.5536   -3.8928    0.0000 H       1  UNL1        0.0263
     49 H           1.3894   -4.7699    0.0000 H       1  UNL1        0.0230
     50 H           1.8923   -5.4882    0.0000 H       1  UNL1        0.0230
     51 H           2.6106   -4.9852    0.0000 H       1  UNL1        0.0230
@<TRIPOS>BOND
     1     1    10    1
     2     1    12    1
     3     2    12    2
     4     3     4    1
     5     3     5    1
     6     3    11    1
     7     4     6    1
     8     4     8    1
     9     4    21    1
    10     5     7    1
    11     5     9    1
    12     5    22    1
    13     6     7    1
    14     6    23    1
    15     6    24    1
    16     7    25    1
    17     7    26    1
    18     8    10    1
    19     8    27    1
    20     8    28    1
    21     9    10    1
    22     9    29    1
    23     9    30    1
    24    10    31    1
    25    11    32    1
    26    11    33    1
    27    11    34    1
    28    12    13    1
    29    13    14    1
    30    13    35    1
    31    13    36    1
    32    14    15    1
    33    14    37    1
    34    14    38    1
    35    15    16    1
    36    15    39    1
    37    15    40    1
    38    16    17    1
    39    16    41    1
    40    16    42    1
    41    17    18    1
    42    17    43    1
    43    17    44    1
    44    18    19    1
    45    18    45    1
    46    18    46    1
    47    19    20    1
    48    19    47    1
    49    19    48    1
    50    20    49    1
    51    20    50    1
    52    20    51    1
