@<TRIPOS>MOLECULE
IMPHY010068
 51 54 0 0 0
SMALL
GASTEIGER

@<TRIPOS>ATOM
      1 O           5.4200    1.9872    0.0000 O.3     1  UNL1       -0.3837
      2 O           5.4200   -0.2270    0.0000 O.2     1  UNL1       -0.2940
      3 O           2.0000   -1.6723    0.0000 O.2     1  UNL1       -0.2968
      4 C           5.6610    0.3801    0.0000 C.3     1  UNL1       -0.0220
      5 C           4.7510   -0.1268    0.0000 C.3     1  UNL1       -0.0242
      6 C           6.5271   -0.1199    0.0000 C.3     1  UNL1        0.0386
      7 C           4.7430   -1.1684    0.0000 C.3     1  UNL1       -0.0235
      8 C           5.6610    1.3801    0.0000 C.3     1  UNL1       -0.0395
      9 C           6.5431   -1.1614    0.0000 C.3     1  UNL1       -0.0397
     10 C           5.6451   -1.6892    0.0000 C.3     1  UNL1       -0.0479
     11 C           6.5271    1.8801    0.0000 C.3     1  UNL1        0.0131
     12 C           3.8076   -1.7181    0.0000 C.3     1  UNL1        0.0267
     13 C           7.3931    0.3801    0.0000 C.3     1  UNL1       -0.0189
     14 C           3.8242    0.4373    0.0000 C.3     1  UNL1       -0.0404
     15 C           6.1271    0.4801    0.0000 C.2     1  UNL1        0.1688
     16 C           6.1271    1.2801    0.0000 C.3     1  UNL1        0.1200
     17 C           7.3931    1.3801    0.0000 C.2     1  UNL1       -0.0697
     18 C           4.4163    0.8155    0.0000 C.3     1  UNL1       -0.0590
     19 C           2.8763   -0.0906    0.0000 C.3     1  UNL1        0.0069
     20 C           2.8680   -1.1756    0.0000 C.2     1  UNL1        0.1392
     21 C           3.3109   -2.5860    0.0000 C.3     1  UNL1       -0.0528
     22 C           4.3109   -2.5822    0.0000 C.3     1  UNL1       -0.0528
     23 C           8.2591    1.8801    0.0000 C.2     1  UNL1       -0.0991
     24 H           4.9249    0.8051    0.0000 H       1  UNL1        0.0316
     25 H           4.7463   -2.0184    0.0000 H       1  UNL1        0.0315
     26 H           5.4490    1.9627    0.0000 H       1  UNL1        0.0275
     27 H           5.0504    1.2724    0.0000 H       1  UNL1        0.0275
     28 H           6.7612   -1.7418    0.0000 H       1  UNL1        0.0275
     29 H           7.1523   -1.0459    0.0000 H       1  UNL1        0.0275
     30 H           5.2478   -2.1652    0.0000 H       1  UNL1        0.0269
     31 H           6.0460   -2.1621    0.0000 H       1  UNL1        0.0269
     32 H           6.5271    2.7301    0.0000 H       1  UNL1        0.0375
     33 H           7.6051   -0.2025    0.0000 H       1  UNL1        0.0320
     34 H           8.0037    0.4877    0.0000 H       1  UNL1        0.0320
     35 H           4.2324    0.9040    0.0000 H       1  UNL1        0.0275
     36 H           3.4343    0.9193    0.0000 H       1  UNL1        0.0275
     37 H           5.5542    1.0428    0.0000 H       1  UNL1        0.0679
     38 H           5.0005    1.0231    0.0000 H       1  UNL1        0.0235
     39 H           4.2087    1.3998    0.0000 H       1  UNL1        0.0235
     40 H           3.8320    0.6080    0.0000 H       1  UNL1        0.0235
     41 H           2.6718    0.4946    0.0000 H       1  UNL1        0.0342
     42 H           2.2647   -0.1920    0.0000 H       1  UNL1        0.0342
     43 H           3.7752   -2.8943    0.0000 H       1  UNL1        0.0239
     44 H           4.6230   -3.1179    0.0000 H       1  UNL1        0.0239
     45 H           4.8466   -2.2701    0.0000 H       1  UNL1        0.0239
     46 H           2.7728   -2.2781    0.0000 H       1  UNL1        0.0239
     47 H           3.0030   -3.1242    0.0000 H       1  UNL1        0.0239
     48 H           3.8490   -2.8940    0.0000 H       1  UNL1        0.0239
     49 H           8.7960    1.5701    0.0000 H       1  UNL1        0.0535
     50 H           8.2591    2.5001    0.0000 H       1  UNL1        0.0535
     51 H           5.5804    2.5860    0.0000 H       1  UNL1        0.2104
@<TRIPOS>BOND
     1    16     1    1
     2     1    51    1
     3     2    15    2
     4     3    20    2
     5     4     5    1
     6     4     6    1
     7     4     8    1
     8     4    24    1
     9     5     7    1
    10     5    14    1
    11     5    18    1
    12     6     9    1
    13     6    13    1
    14     6    15    1
    15     7    10    1
    16     7    12    1
    17     7    25    1
    18     8    11    1
    19     8    26    1
    20     8    27    1
    21     9    10    1
    22     9    28    1
    23     9    29    1
    24    10    30    1
    25    10    31    1
    26    11    16    1
    27    11    17    1
    28    11    32    1
    29    12    20    1
    30    12    21    1
    31    12    22    1
    32    13    17    1
    33    13    33    1
    34    13    34    1
    35    14    19    1
    36    14    35    1
    37    14    36    1
    38    15    16    1
    39    16    37    1
    40    17    23    2
    41    18    38    1
    42    18    39    1
    43    18    40    1
    44    19    20    1
    45    19    41    1
    46    19    42    1
    47    21    46    1
    48    21    47    1
    49    21    48    1
    50    22    43    1
    51    22    44    1
    52    22    45    1
    53    23    49    1
    54    23    50    1
