@<TRIPOS>MOLECULE
IMPHY000749
 56 61 0 0 0
SMALL
GASTEIGER

@<TRIPOS>ATOM
      1 O           5.0422   -2.1219    0.0000 O.3     1  UNL1       -0.5063
      2 O           9.9127    2.1189    0.0000 O.3     1  UNL1       -0.5063
      3 O           8.0902   -3.9009    0.0000 O.3     1  UNL1       -0.5066
      4 O           6.8540    3.9006    0.0000 O.3     1  UNL1       -0.5066
      5 O          12.4914   -0.9506    0.0000 O.3     1  UNL1       -0.5068
      6 O           2.4600    0.9285    0.0000 O.3     1  UNL1       -0.5068
      7 C           7.8781   -0.3023    0.0000 C.3     1  UNL1        0.0033
      8 C           7.0691    0.2854    0.0000 C.3     1  UNL1        0.0033
      9 C           8.6871    0.2854    0.0000 C.3     1  UNL1        0.0203
     10 C           6.2664   -0.3010    0.0000 C.3     1  UNL1        0.0203
     11 C           7.5685   -1.2470    0.0000 C.ar    1  UNL1       -0.0321
     12 C           7.3781    1.2365    0.0000 C.ar    1  UNL1       -0.0321
     13 C           6.5744   -1.2461    0.0000 C.ar    1  UNL1        0.0057
     14 C           8.3781    1.2365    0.0000 C.ar    1  UNL1        0.0057
     15 C           9.6382   -0.0236    0.0000 C.ar    1  UNL1       -0.0390
     16 C           5.3148    0.0064    0.0000 C.ar    1  UNL1       -0.0390
     17 C           8.0992   -2.1361    0.0000 C.ar    1  UNL1       -0.0162
     18 C           6.8434    2.1304    0.0000 C.ar    1  UNL1       -0.0162
     19 C           6.0421   -2.1343    0.0000 C.ar    1  UNL1        0.1243
     20 C           8.9128    2.1304    0.0000 C.ar    1  UNL1        0.1243
     21 C           7.5876   -3.0363    0.0000 C.ar    1  UNL1        0.1206
     22 C           7.3573    3.0365    0.0000 C.ar    1  UNL1        0.1206
     23 C           6.5522   -3.0354    0.0000 C.ar    1  UNL1        0.0216
     24 C           8.3989    3.0365    0.0000 C.ar    1  UNL1        0.0216
     25 C           9.8461   -1.0017    0.0000 C.ar    1  UNL1       -0.0545
     26 C           5.1052    0.9842    0.0000 C.ar    1  UNL1       -0.0545
     27 C          10.3813    0.6456    0.0000 C.ar    1  UNL1       -0.0545
     28 C           4.5728   -0.6640    0.0000 C.ar    1  UNL1       -0.0545
     29 C          10.7972   -1.3107    0.0000 C.ar    1  UNL1       -0.0199
     30 C           4.1536    1.2916    0.0000 C.ar    1  UNL1       -0.0199
     31 C          11.3324    0.3365    0.0000 C.ar    1  UNL1       -0.0199
     32 C           3.6212   -0.3566    0.0000 C.ar    1  UNL1       -0.0199
     33 C           3.4116    0.6212    0.0000 C.ar    1  UNL1        0.1169
     34 C          11.5403   -0.6416    0.0000 C.ar    1  UNL1        0.1169
     35 H           8.5651   -0.8029    0.0000 H       1  UNL1        0.0364
     36 H           6.3808    0.7842    0.0000 H       1  UNL1        0.0364
     37 H           5.8286   -0.7399    0.0000 H       1  UNL1        0.0405
     38 H           8.7841   -0.3269    0.0000 H       1  UNL1        0.0405
     39 H           8.7192   -2.1294    0.0000 H       1  UNL1        0.0657
     40 H           6.2235    2.1233    0.0000 H       1  UNL1        0.0657
     41 H           6.2396   -3.5709    0.0000 H       1  UNL1        0.0691
     42 H           8.7110    3.5722    0.0000 H       1  UNL1        0.0691
     43 H           9.3854   -1.4166    0.0000 H       1  UNL1        0.0622
     44 H           5.5652    1.3999    0.0000 H       1  UNL1        0.0622
     45 H          10.2524    1.2520    0.0000 H       1  UNL1        0.0622
     46 H           4.7028   -1.2702    0.0000 H       1  UNL1        0.0622
     47 H           4.7256   -2.6549    0.0000 H       1  UNL1        0.2921
     48 H          10.2289    2.6522    0.0000 H       1  UNL1        0.2921
     49 H          10.9261   -1.9172    0.0000 H       1  UNL1        0.0654
     50 H           4.0236    1.8978    0.0000 H       1  UNL1        0.0654
     51 H          11.7931    0.7514    0.0000 H       1  UNL1        0.0654
     52 H           3.1612   -0.7723    0.0000 H       1  UNL1        0.0654
     53 H           7.7818   -4.4387    0.0000 H       1  UNL1        0.2921
     54 H           7.1619    4.4387    0.0000 H       1  UNL1        0.2921
     55 H          12.9521   -0.5358    0.0000 H       1  UNL1        0.2921
     56 H           2.0000    0.5129    0.0000 H       1  UNL1        0.2921
@<TRIPOS>BOND
     1     1    19    1
     2     1    47    1
     3     2    20    1
     4     2    48    1
     5     3    21    1
     6     3    53    1
     7     4    22    1
     8     4    54    1
     9     5    34    1
    10     5    55    1
    11     6    33    1
    12     6    56    1
    13     7     8    1
    14     7     9    1
    15     7    11    1
    16     7    35    1
    17     8    10    1
    18     8    12    1
    19     8    36    1
    20     9    14    1
    21     9    15    1
    22     9    38    1
    23    10    13    1
    24    10    16    1
    25    10    37    1
    26    11    13   ar
    27    11    17   ar
    28    12    14   ar
    29    12    18   ar
    30    13    19   ar
    31    14    20   ar
    32    15    25   ar
    33    15    27   ar
    34    16    26   ar
    35    16    28   ar
    36    17    21   ar
    37    17    39    1
    38    18    22   ar
    39    18    40    1
    40    19    23   ar
    41    20    24   ar
    42    21    23   ar
    43    22    24   ar
    44    23    41    1
    45    24    42    1
    46    25    29   ar
    47    25    43    1
    48    26    30   ar
    49    26    44    1
    50    27    31   ar
    51    27    45    1
    52    28    32   ar
    53    28    46    1
    54    29    34   ar
    55    29    49    1
    56    30    33   ar
    57    30    50    1
    58    31    34   ar
    59    31    51    1
    60    32    33   ar
    61    32    52    1
