@<TRIPOS>MOLECULE
IMPHY012610
 22 22 0 0 0
SMALL
GASTEIGER

@<TRIPOS>ATOM
      1 O           4.4142    1.2071    0.0000 O.3     1  UNL1       -0.3888
      2 C           3.0000   -0.2071    0.0000 C.3     1  UNL1       -0.0126
      3 C           3.0000   -1.2071    0.0000 C.3     1  UNL1       -0.0476
      4 C           2.0000   -0.2071    0.0000 C.3     1  UNL1       -0.0476
      5 C           2.0000   -1.2071    0.0000 C.3     1  UNL1       -0.0524
      6 C           3.7071    0.5000    0.0000 C.3     1  UNL1        0.0633
      7 C           4.4142   -0.2071    0.0000 C.3     1  UNL1       -0.0361
      8 C           3.0000    1.2071    0.0000 C.3     1  UNL1       -0.0361
      9 H           2.7627    0.3657    0.0000 H       1  UNL1        0.0328
     10 H           3.0000   -1.8271    0.0000 H       1  UNL1        0.0269
     11 H           3.6200   -1.2071    0.0000 H       1  UNL1        0.0269
     12 H           2.0000    0.4129    0.0000 H       1  UNL1        0.0269
     13 H           1.3800   -0.2071    0.0000 H       1  UNL1        0.0269
     14 H           1.3800   -1.2071    0.0000 H       1  UNL1        0.0265
     15 H           2.0000   -1.8271    0.0000 H       1  UNL1        0.0265
     16 H           3.9758   -0.6455    0.0000 H       1  UNL1        0.0257
     17 H           4.8526   -0.6455    0.0000 H       1  UNL1        0.0257
     18 H           4.8526    0.2313    0.0000 H       1  UNL1        0.0257
     19 H           3.4384    1.6455    0.0000 H       1  UNL1        0.0257
     20 H           2.5616    1.6455    0.0000 H       1  UNL1        0.0257
     21 H           2.5616    0.7687    0.0000 H       1  UNL1        0.0257
     22 H           5.0131    1.0466    0.0000 H       1  UNL1        0.2101
@<TRIPOS>BOND
     1     1     6    1
     2     1    22    1
     3     2     3    1
     4     2     4    1
     5     2     6    1
     6     2     9    1
     7     3     5    1
     8     3    10    1
     9     3    11    1
    10     4     5    1
    11     4    12    1
    12     4    13    1
    13     5    14    1
    14     5    15    1
    15     6     7    1
    16     6     8    1
    17     7    16    1
    18     7    17    1
    19     7    18    1
    20     8    19    1
    21     8    20    1
    22     8    21    1
