@<TRIPOS>MOLECULE
IMPHY007999
 33 36 0 0 0
SMALL
GASTEIGER

@<TRIPOS>ATOM
      1 O           4.1836   -3.3950    0.0000 O.2     1  UNL1       -0.2907
      2 O           4.7674    3.3950    0.0000 O.2     1  UNL1       -0.2878
      3 N           4.5523   -0.2202    0.0000 N.ar    1  UNL1       -0.3384
      4 N           2.8147   -2.2064    0.0000 N.pl3   1  UNL1       -0.3392
      5 C           3.7433   -0.8079    0.0000 C.ar    1  UNL1        0.0707
      6 C           2.9343   -0.2202    0.0000 C.ar    1  UNL1       -0.0114
      7 C           5.4960   -0.4874    0.0000 C.3     1  UNL1        0.0243
      8 C           4.2433    0.7309    0.0000 C.ar    1  UNL1        0.0535
      9 C           2.0591   -0.6711    0.0000 C.3     1  UNL1       -0.0095
     10 C           3.2433    0.7309    0.0000 C.ar    1  UNL1        0.0040
     11 C           3.7059   -1.7880    0.0000 C.2     1  UNL1        0.0942
     12 C           5.8778   -1.3908    0.0000 C.3     1  UNL1       -0.0279
     13 C           2.0000   -1.6537    0.0000 C.3     1  UNL1        0.0133
     14 C           5.4119   -2.2539    0.0000 C.3     1  UNL1        0.0134
     15 C           4.4471   -2.4303    0.0000 C.2     1  UNL1        0.1788
     16 C           4.7780    1.6248    0.0000 C.2     1  UNL1        0.0092
     17 C           2.7086    1.6248    0.0000 C.2     1  UNL1       -0.0487
     18 C           4.2641    2.5309    0.0000 C.2     1  UNL1        0.1810
     19 C           3.2225    2.5309    0.0000 C.2     1  UNL1       -0.0142
     20 H           6.1066   -0.3797    0.0000 H       1  UNL1        0.0492
     21 H           5.5274    0.1318    0.0000 H       1  UNL1        0.0492
     22 H           1.8776   -0.0782    0.0000 H       1  UNL1        0.0329
     23 H           1.4435   -0.7444    0.0000 H       1  UNL1        0.0329
     24 H           6.3438   -1.7998    0.0000 H       1  UNL1        0.0286
     25 H           6.3805   -1.0280    0.0000 H       1  UNL1        0.0286
     26 H           1.3976   -1.5071    0.0000 H       1  UNL1        0.0464
     27 H           1.7487   -2.2205    0.0000 H       1  UNL1        0.0464
     28 H           5.3843   -2.8733    0.0000 H       1  UNL1        0.0346
     29 H           6.0095   -2.4191    0.0000 H       1  UNL1        0.0346
     30 H           2.7661   -2.8244    0.0000 H       1  UNL1        0.1462
     31 H           5.3979    1.6177    0.0000 H       1  UNL1        0.0677
     32 H           2.0887    1.6177    0.0000 H       1  UNL1        0.0625
     33 H           2.9104    3.0666    0.0000 H       1  UNL1        0.0656
@<TRIPOS>BOND
     1     1    15    2
     2     2    18    2
     3     3     5   ar
     4     3     7    1
     5     3     8   ar
     6     4    11    1
     7     4    13    1
     8     4    30    1
     9     5     6   ar
    10     5    11    2
    11     6     9    1
    12     6    10   ar
    13     7    12    1
    14     7    20    1
    15     7    21    1
    16     8    10   ar
    17     8    16    2
    18     9    13    1
    19     9    22    1
    20     9    23    1
    21    10    17    1
    22    11    15    1
    23    12    14    1
    24    12    24    1
    25    12    25    1
    26    13    26    1
    27    13    27    1
    28    14    15    1
    29    14    28    1
    30    14    29    1
    31    16    18    1
    32    16    31    1
    33    17    19    2
    34    17    32    1
    35    18    19    1
    36    19    33    1
