@<TRIPOS>MOLECULE
IMPHY005714
 52 54 0 0 0
SMALL
GASTEIGER

@<TRIPOS>ATOM
      1 O           5.3788   -1.8227    0.0000 O.3     1  UNL1       -0.4907
      2 O           7.0622   -2.9895    0.0000 O.3     1  UNL1       -0.4885
      3 O           8.9077   -2.1008    0.0000 O.3     1  UNL1       -0.4913
      4 O           2.2948   -0.1416    0.0000 O.3     1  UNL1       -0.4913
      5 O           2.7031    1.6588    0.0000 O.2     1  UNL1       -0.2840
      6 N           5.4447    2.7298    0.0000 N.3     1  UNL1       -0.3123
      7 C           5.8786    1.8288    0.0000 C.3     1  UNL1        0.0336
      8 C           6.8786    1.8288    0.0000 C.3     1  UNL1       -0.0294
      9 C           7.5021    1.0470    0.0000 C.3     1  UNL1       -0.0252
     10 C           5.2551    1.0470    0.0000 C.ar    1  UNL1       -0.0189
     11 C           7.2796    0.0721    0.0000 C.ar    1  UNL1       -0.0324
     12 C           6.3786   -0.3618    0.0000 C.ar    1  UNL1        0.0312
     13 C           5.4776    0.0721    0.0000 C.ar    1  UNL1       -0.0091
     14 C           6.2847   -1.3992    0.0000 C.ar    1  UNL1        0.1731
     15 C           8.1491   -0.5014    0.0000 C.ar    1  UNL1       -0.0123
     16 C           4.3686    1.4666    0.0000 C.ar    1  UNL1       -0.0060
     17 C           4.8610   -0.6906    0.0000 C.ar    1  UNL1       -0.0500
     18 C           7.1408   -1.9926    0.0000 C.ar    1  UNL1        0.2041
     19 C           8.0793   -1.5407    0.0000 C.ar    1  UNL1        0.1655
     20 C           6.0080    3.5560    0.0000 C.3     1  UNL1       -0.0152
     21 C           3.4866    1.0375    0.0000 C.ar    1  UNL1        0.2206
     22 C           3.8802   -0.6867    0.0000 C.ar    1  UNL1       -0.0155
     23 C           3.2697    0.0810    0.0000 C.ar    1  UNL1        0.1665
     24 C           5.2926   -2.8189    0.0000 C.3     1  UNL1        0.0790
     25 C           7.8863   -3.5560    0.0000 C.3     1  UNL1        0.0791
     26 C           9.8070   -1.6634    0.0000 C.3     1  UNL1        0.0790
     27 C           2.0000   -1.0971    0.0000 C.3     1  UNL1        0.0790
     28 H           6.2084    2.3538    0.0000 H       1  UNL1        0.0510
     29 H           7.4372    2.0978    0.0000 H       1  UNL1        0.0287
     30 H           6.7406    2.4333    0.0000 H       1  UNL1        0.0287
     31 H           8.0607    0.7780    0.0000 H       1  UNL1        0.0314
     32 H           7.8886    1.5317    0.0000 H       1  UNL1        0.0314
     33 H           4.8264    2.7761    0.0000 H       1  UNL1        0.1222
     34 H           8.7046   -0.2259    0.0000 H       1  UNL1        0.0658
     35 H           4.3652    2.0866    0.0000 H       1  UNL1        0.0660
     36 H           5.1270   -1.2507    0.0000 H       1  UNL1        0.0625
     37 H           6.5203    3.2068    0.0000 H       1  UNL1        0.0388
     38 H           6.3573    4.0683    0.0000 H       1  UNL1        0.0388
     39 H           5.4958    3.9053    0.0000 H       1  UNL1        0.0388
     40 H           3.6097   -1.2445    0.0000 H       1  UNL1        0.0655
     41 H           4.6749   -2.7654    0.0000 H       1  UNL1        0.0660
     42 H           5.2391   -3.4366    0.0000 H       1  UNL1        0.0660
     43 H           5.9102   -2.8724    0.0000 H       1  UNL1        0.0660
     44 H           7.5351   -4.0669    0.0000 H       1  UNL1        0.0660
     45 H           8.3972   -3.9072    0.0000 H       1  UNL1        0.0660
     46 H           8.2375   -3.0451    0.0000 H       1  UNL1        0.0660
     47 H          10.0781   -2.2210    0.0000 H       1  UNL1        0.0660
     48 H          10.3646   -1.3923    0.0000 H       1  UNL1        0.0660
     49 H           9.5358   -1.1059    0.0000 H       1  UNL1        0.0660
     50 H           1.4075   -0.9144    0.0000 H       1  UNL1        0.0660
     51 H           1.8172   -1.6896    0.0000 H       1  UNL1        0.0660
     52 H           2.5925   -1.2799    0.0000 H       1  UNL1        0.0660
@<TRIPOS>BOND
     1     1    14    1
     2     1    24    1
     3     2    18    1
     4     2    25    1
     5     3    19    1
     6     3    26    1
     7     4    23    1
     8     4    27    1
     9     5    21    2
    10     7     6    1
    11     6    20    1
    12     6    33    1
    13     7     8    1
    14     7    10    1
    15     7    28    1
    16     8     9    1
    17     8    29    1
    18     8    30    1
    19     9    11    1
    20     9    31    1
    21     9    32    1
    22    10    13   ar
    23    10    16   ar
    24    11    12   ar
    25    11    15   ar
    26    12    13    1
    27    12    14   ar
    28    13    17   ar
    29    14    18   ar
    30    15    19   ar
    31    15    34    1
    32    16    21   ar
    33    16    35    1
    34    17    22   ar
    35    17    36    1
    36    18    19   ar
    37    20    37    1
    38    20    38    1
    39    20    39    1
    40    21    23   ar
    41    22    23   ar
    42    22    40    1
    43    24    41    1
    44    24    42    1
    45    24    43    1
    46    25    44    1
    47    25    45    1
    48    25    46    1
    49    26    47    1
    50    26    48    1
    51    26    49    1
    52    27    50    1
    53    27    51    1
    54    27    52    1
