@<TRIPOS>MOLECULE
IMPHY015891
 58 58 0 0 0
SMALL
GASTEIGER

@<TRIPOS>ATOM
      1 O           2.0000   -6.4400    0.0000 O.3     1  UNL1       -0.5068
      2 C           6.3301    1.0600    0.0000 C.3     1  UNL1       -0.0531
      3 C           7.1962    1.5600    0.0000 C.3     1  UNL1       -0.0531
      4 C           6.3301    0.0600    0.0000 C.3     1  UNL1       -0.0531
      5 C           7.1962    2.5600    0.0000 C.3     1  UNL1       -0.0531
      6 C           5.4641   -0.4400    0.0000 C.3     1  UNL1       -0.0531
      7 C           8.0622    3.0600    0.0000 C.3     1  UNL1       -0.0531
      8 C           5.4641   -1.4400    0.0000 C.3     1  UNL1       -0.0530
      9 C           8.0622    4.0600    0.0000 C.3     1  UNL1       -0.0531
     10 C           4.5981   -1.9400    0.0000 C.3     1  UNL1       -0.0528
     11 C           8.9282    4.5600    0.0000 C.3     1  UNL1       -0.0531
     12 C           4.5981   -2.9400    0.0000 C.3     1  UNL1       -0.0491
     13 C           8.9282    5.5600    0.0000 C.3     1  UNL1       -0.0533
     14 C           3.7320   -3.4400    0.0000 C.3     1  UNL1       -0.0276
     15 C           9.7942    6.0600    0.0000 C.3     1  UNL1       -0.0559
     16 C           3.7320   -4.4400    0.0000 C.ar    1  UNL1       -0.0439
     17 C           9.7942    7.0600    0.0000 C.3     1  UNL1       -0.0653
     18 C           2.8660   -4.9400    0.0000 C.ar    1  UNL1       -0.0170
     19 C           4.5981   -4.9400    0.0000 C.ar    1  UNL1       -0.0583
     20 C           2.8660   -5.9400    0.0000 C.ar    1  UNL1        0.1171
     21 C           4.5981   -5.9400    0.0000 C.ar    1  UNL1       -0.0581
     22 C           3.7320   -6.4400    0.0000 C.ar    1  UNL1       -0.0202
     23 H           6.1181    1.6426    0.0000 H       1  UNL1        0.0265
     24 H           5.7196    0.9523    0.0000 H       1  UNL1        0.0265
     25 H           7.4082    0.9774    0.0000 H       1  UNL1        0.0265
     26 H           7.8067    1.6677    0.0000 H       1  UNL1        0.0265
     27 H           6.5422   -0.5226    0.0000 H       1  UNL1        0.0265
     28 H           6.9407    0.1677    0.0000 H       1  UNL1        0.0265
     29 H           6.9841    3.1426    0.0000 H       1  UNL1        0.0265
     30 H           6.5856    2.4523    0.0000 H       1  UNL1        0.0265
     31 H           5.2520    0.1426    0.0000 H       1  UNL1        0.0265
     32 H           4.8535   -0.5477    0.0000 H       1  UNL1        0.0265
     33 H           8.2742    2.4774    0.0000 H       1  UNL1        0.0265
     34 H           8.6728    3.1677    0.0000 H       1  UNL1        0.0265
     35 H           5.6762   -2.0226    0.0000 H       1  UNL1        0.0265
     36 H           6.0747   -1.3323    0.0000 H       1  UNL1        0.0265
     37 H           7.8501    4.6426    0.0000 H       1  UNL1        0.0265
     38 H           7.4516    3.9523    0.0000 H       1  UNL1        0.0265
     39 H           4.3860   -1.3574    0.0000 H       1  UNL1        0.0265
     40 H           3.9875   -2.0477    0.0000 H       1  UNL1        0.0265
     41 H           9.1403    3.9774    0.0000 H       1  UNL1        0.0265
     42 H           9.5388    4.6677    0.0000 H       1  UNL1        0.0265
     43 H           4.8101   -3.5226    0.0000 H       1  UNL1        0.0268
     44 H           5.2087   -2.8323    0.0000 H       1  UNL1        0.0268
     45 H           8.7162    6.1426    0.0000 H       1  UNL1        0.0265
     46 H           8.3176    5.4523    0.0000 H       1  UNL1        0.0265
     47 H           3.5200   -2.8574    0.0000 H       1  UNL1        0.0313
     48 H           3.1215   -3.5477    0.0000 H       1  UNL1        0.0313
     49 H          10.0063    5.4774    0.0000 H       1  UNL1        0.0263
     50 H          10.4048    6.1677    0.0000 H       1  UNL1        0.0263
     51 H          10.4142    7.0600    0.0000 H       1  UNL1        0.0230
     52 H           9.7942    7.6800    0.0000 H       1  UNL1        0.0230
     53 H           9.1742    7.0600    0.0000 H       1  UNL1        0.0230
     54 H           2.3291   -4.6300    0.0000 H       1  UNL1        0.0657
     55 H           5.1350   -4.6300    0.0000 H       1  UNL1        0.0620
     56 H           5.1350   -6.2500    0.0000 H       1  UNL1        0.0619
     57 H           3.7320   -7.0600    0.0000 H       1  UNL1        0.0654
     58 H           2.0000   -7.0600    0.0000 H       1  UNL1        0.2921
@<TRIPOS>BOND
     1     1    20    1
     2     1    58    1
     3     2     3    1
     4     2     4    1
     5     2    23    1
     6     2    24    1
     7     3     5    1
     8     3    25    1
     9     3    26    1
    10     4     6    1
    11     4    27    1
    12     4    28    1
    13     5     7    1
    14     5    29    1
    15     5    30    1
    16     6     8    1
    17     6    31    1
    18     6    32    1
    19     7     9    1
    20     7    33    1
    21     7    34    1
    22     8    10    1
    23     8    35    1
    24     8    36    1
    25     9    11    1
    26     9    37    1
    27     9    38    1
    28    10    12    1
    29    10    39    1
    30    10    40    1
    31    11    13    1
    32    11    41    1
    33    11    42    1
    34    12    14    1
    35    12    43    1
    36    12    44    1
    37    13    15    1
    38    13    45    1
    39    13    46    1
    40    14    16    1
    41    14    47    1
    42    14    48    1
    43    15    17    1
    44    15    49    1
    45    15    50    1
    46    16    18   ar
    47    16    19   ar
    48    17    51    1
    49    17    52    1
    50    17    53    1
    51    18    20   ar
    52    18    54    1
    53    19    21   ar
    54    19    55    1
    55    20    22   ar
    56    21    22   ar
    57    21    56    1
    58    22    57    1
