@<TRIPOS>MOLECULE
IMPHY016919
 165 172 0 0 0
SMALL
GASTEIGER

@<TRIPOS>ATOM
      1 O           6.3980    1.5069    0.0000 O.3     1  UNL1       -0.3915
      2 O           8.1008   -4.6833    0.0000 O.3     1  UNL1       -0.3449
      3 O           6.9941    3.9697    0.0000 O.3     1  UNL1       -0.3422
      4 O           6.3688   -4.6833    0.0000 O.3     1  UNL1       -0.3405
      5 O           6.6304    5.6631    0.0000 O.3     1  UNL1       -0.3405
      6 O           8.1008   -6.6833    0.0000 O.3     1  UNL1       -0.3378
      7 O           8.9495    4.3896    0.0000 O.3     1  UNL1       -0.3841
      8 O           6.3688   -7.6833    0.0000 O.3     1  UNL1       -0.3864
      9 O           9.5635    6.2931    0.0000 O.3     1  UNL1       -0.3864
     10 O           4.6367   -6.6833    0.0000 O.3     1  UNL1       -0.3865
     11 O           8.2221    7.7765    0.0000 O.3     1  UNL1       -0.3865
     12 O           5.2890    7.1465    0.0000 O.3     1  UNL1       -0.3461
     13 O           7.2348   -8.1833    0.0000 O.3     1  UNL1       -0.3405
     14 O           3.7707   -5.1833    0.0000 O.3     1  UNL1       -0.3924
     15 O           9.8329   -7.6833    0.0000 O.3     1  UNL1       -0.3841
     16 O           9.8329   -9.6833    0.0000 O.3     1  UNL1       -0.3864
     17 O           3.6406    7.6783    0.0000 O.3     1  UNL1       -0.3461
     18 O           8.1008  -10.6833    0.0000 O.3     1  UNL1       -0.3865
     19 O           5.5028   -9.1833    0.0000 O.3     1  UNL1       -0.3924
     20 O           5.9030    9.0500    0.0000 O.3     1  UNL1       -0.3841
     21 O           4.5616   10.5334    0.0000 O.3     1  UNL1       -0.3864
     22 O           2.6062   10.1134    0.0000 O.3     1  UNL1       -0.3869
     23 C           9.0019    0.0170    0.0000 C.3     1  UNL1       -0.0229
     24 C           8.9980    1.0169    0.0000 C.3     1  UNL1       -0.0209
     25 C           8.1378   -0.4864    0.0000 C.3     1  UNL1       -0.0271
     26 C           8.1258   -1.5279    0.0000 C.3     1  UNL1       -0.0252
     27 C           8.1301    1.5136    0.0000 C.3     1  UNL1       -0.0036
     28 C           9.0258   -2.0522    0.0000 C.3     1  UNL1       -0.0278
     29 C           9.9138   -0.4864    0.0000 C.3     1  UNL1       -0.0466
     30 C           8.3356    2.4862    0.0000 C.3     1  UNL1       -0.0063
     31 C           7.2698    0.0103    0.0000 C.3     1  UNL1       -0.0227
     32 C           7.2660    1.0103    0.0000 C.3     1  UNL1        0.0592
     33 C           9.7325    1.6869    0.0000 C.3     1  UNL1       -0.0464
     34 C           9.9259   -1.5279    0.0000 C.3     1  UNL1       -0.0486
     35 C           9.0384   -3.1372    0.0000 C.3     1  UNL1       -0.0052
     36 C           9.3239    2.5931    0.0000 C.3     1  UNL1       -0.0467
     37 C           7.1758   -2.0522    0.0000 C.3     1  UNL1       -0.0447
     38 C           9.9860    0.1944    0.0000 C.3     1  UNL1       -0.0588
     39 C           9.9835    0.8471    0.0000 C.3     1  UNL1       -0.0587
     40 C           7.2617   -1.0246    0.0000 C.3     1  UNL1       -0.0590
     41 C           8.1008   -3.6833    0.0000 C.3     1  UNL1        0.0672
     42 C           7.6648    3.2279    0.0000 C.3     1  UNL1        0.0733
     43 C           7.1633   -3.1372    0.0000 C.3     1  UNL1       -0.0255
     44 C          10.0383   -3.1294    0.0000 C.3     1  UNL1       -0.0572
     45 C           9.5450   -3.9993    0.0000 C.3     1  UNL1       -0.0572
     46 C           8.4066    3.8986    0.0000 C.3     1  UNL1       -0.0202
     47 C           6.9231    2.5572    0.0000 C.3     1  UNL1       -0.0354
     48 C           9.3583    3.5916    0.0000 C.3     1  UNL1       -0.0319
     49 C           7.2348   -5.1833    0.0000 C.3     1  UNL1        0.1886
     50 C           7.3011    4.9214    0.0000 C.3     1  UNL1        0.1885
     51 C           7.2348   -6.1833    0.0000 C.3     1  UNL1        0.1406
     52 C           8.2788    5.1314    0.0000 C.3     1  UNL1        0.1341
     53 C          10.1000    4.2624    0.0000 C.2     1  UNL1       -0.0852
     54 C           6.3688   -6.6833    0.0000 C.3     1  UNL1        0.1144
     55 C           8.5858    6.0831    0.0000 C.3     1  UNL1        0.1141
     56 C           5.5028   -5.1833    0.0000 C.3     1  UNL1        0.1130
     57 C           6.9374    6.6148    0.0000 C.3     1  UNL1        0.1134
     58 C           5.5028   -6.1833    0.0000 C.3     1  UNL1        0.1119
     59 C           7.9151    6.8248    0.0000 C.3     1  UNL1        0.1119
     60 C          11.0517    3.9554    0.0000 C.2     1  UNL1       -0.0796
     61 C           4.6367   -4.6833    0.0000 C.3     1  UNL1        0.0730
     62 C           6.2667    7.3565    0.0000 C.3     1  UNL1        0.0796
     63 C           8.1008   -7.6833    0.0000 C.3     1  UNL1        0.1885
     64 C          11.7934    4.6261    0.0000 C.3     1  UNL1       -0.0440
     65 C          11.2617    2.9777    0.0000 C.3     1  UNL1       -0.0440
     66 C           8.9669   -8.1833    0.0000 C.3     1  UNL1        0.1341
     67 C           8.9669   -9.1833    0.0000 C.3     1  UNL1        0.1141
     68 C           7.2348   -9.1833    0.0000 C.3     1  UNL1        0.1130
     69 C           8.1008   -9.6833    0.0000 C.3     1  UNL1        0.1119
     70 C           4.6183    7.8883    0.0000 C.3     1  UNL1        0.1876
     71 C           6.3688   -9.6833    0.0000 C.3     1  UNL1        0.0730
     72 C           4.9253    8.8400    0.0000 C.3     1  UNL1        0.1341
     73 C           4.2546    9.5817    0.0000 C.3     1  UNL1        0.1137
     74 C           2.9699    8.4200    0.0000 C.3     1  UNL1        0.0792
     75 C           3.2769    9.3717    0.0000 C.3     1  UNL1        0.1069
     76 H           8.8723   -0.9142    0.0000 H       1  UNL1        0.0312
     77 H           7.4412    2.0115    0.0000 H       1  UNL1        0.0335
     78 H           9.7652   -2.4716    0.0000 H       1  UNL1        0.0312
     79 H          10.5259   -0.5854    0.0000 H       1  UNL1        0.0271
     80 H          10.1161    0.0997    0.0000 H       1  UNL1        0.0271
     81 H           8.6381    3.2805    0.0000 H       1  UNL1        0.0332
     82 H           6.6589    0.1156    0.0000 H       1  UNL1        0.0293
     83 H           7.0600   -0.5731    0.0000 H       1  UNL1        0.0293
     84 H           7.2636    1.6303    0.0000 H       1  UNL1        0.0596
     85 H          10.0998    1.1874    0.0000 H       1  UNL1        0.0271
     86 H          10.2678    1.9997    0.0000 H       1  UNL1        0.0271
     87 H          10.1417   -2.1092    0.0000 H       1  UNL1        0.0268
     88 H          10.5355   -1.4148    0.0000 H       1  UNL1        0.0268
     89 H           9.9127    2.7871    0.0000 H       1  UNL1        0.0269
     90 H           9.1928    3.1991    0.0000 H       1  UNL1        0.0269
     91 H           6.9736   -1.4662    0.0000 H       1  UNL1        0.0271
     92 H           6.5638   -2.1512    0.0000 H       1  UNL1        0.0271
     93 H          10.0960   -0.4158    0.0000 H       1  UNL1        0.0235
     94 H          10.5962    0.3044    0.0000 H       1  UNL1        0.0235
     95 H           9.8760    0.8046    0.0000 H       1  UNL1        0.0235
     96 H           9.8782    0.2361    0.0000 H       1  UNL1        0.0235
     97 H          10.5945    0.7418    0.0000 H       1  UNL1        0.0235
     98 H          10.0888    1.4581    0.0000 H       1  UNL1        0.0235
     99 H           7.5737   -0.4889    0.0000 H       1  UNL1        0.0235
    100 H           6.7259   -0.7125    0.0000 H       1  UNL1        0.0235
    101 H           6.9496   -1.5603    0.0000 H       1  UNL1        0.0235
    102 H           8.6384   -3.9922    0.0000 H       1  UNL1        0.0602
    103 H           6.5537   -3.0240    0.0000 H       1  UNL1        0.0290
    104 H           6.9475   -3.7184    0.0000 H       1  UNL1        0.0290
    105 H          10.0431   -3.7494    0.0000 H       1  UNL1        0.0236
    106 H          10.6583   -3.1247    0.0000 H       1  UNL1        0.0236
    107 H          10.0336   -2.5095    0.0000 H       1  UNL1        0.0236
    108 H           9.0105   -4.3134    0.0000 H       1  UNL1        0.0236
    109 H           9.8592   -4.5338    0.0000 H       1  UNL1        0.0236
    110 H          10.0796   -3.6852    0.0000 H       1  UNL1        0.0236
    111 H           5.8623    1.1949    0.0000 H       1  UNL1        0.2098
    112 H           8.6965    4.4467    0.0000 H       1  UNL1        0.0296
    113 H           7.9172    4.2793    0.0000 H       1  UNL1        0.0296
    114 H           6.5073    3.0171    0.0000 H       1  UNL1        0.0257
    115 H           6.4633    2.1414    0.0000 H       1  UNL1        0.0257
    116 H           7.3390    2.0974    0.0000 H       1  UNL1        0.0257
    117 H           9.0684    3.0436    0.0000 H       1  UNL1        0.0308
    118 H           9.8476    3.2110    0.0000 H       1  UNL1        0.0308
    119 H           7.2348   -4.5633    0.0000 H       1  UNL1        0.0938
    120 H           7.7170    4.4615    0.0000 H       1  UNL1        0.0938
    121 H           7.2348   -6.8033    0.0000 H       1  UNL1        0.0675
    122 H           8.8850    5.2616    0.0000 H       1  UNL1        0.0671
    123 H           9.9698    4.8685    0.0000 H       1  UNL1        0.0571
    124 H           5.8318   -6.9933    0.0000 H       1  UNL1        0.0648
    125 H           8.7762    6.6731    0.0000 H       1  UNL1        0.0648
    126 H           5.5028   -4.5633    0.0000 H       1  UNL1        0.0647
    127 H           6.3312    6.4846    0.0000 H       1  UNL1        0.0647
    128 H           4.9658   -5.8733    0.0000 H       1  UNL1        0.0647
    129 H           7.4993    7.2847    0.0000 H       1  UNL1        0.0647
    130 H           9.5557    4.5198    0.0000 H       1  UNL1        0.2101
    131 H           5.0353   -4.2083    0.0000 H       1  UNL1        0.0584
    132 H           4.2382   -4.2083    0.0000 H       1  UNL1        0.0584
    133 H           6.7918    7.6862    0.0000 H       1  UNL1        0.0587
    134 H           6.0332    7.9309    0.0000 H       1  UNL1        0.0587
    135 H           8.6378   -7.3733    0.0000 H       1  UNL1        0.0938
    136 H           5.8318   -7.9933    0.0000 H       1  UNL1        0.2100
    137 H           9.7539    6.8831    0.0000 H       1  UNL1        0.2100
    138 H          12.2093    4.1662    0.0000 H       1  UNL1        0.0274
    139 H          12.2533    5.0419    0.0000 H       1  UNL1        0.0274
    140 H          11.3776    5.0859    0.0000 H       1  UNL1        0.0274
    141 H          10.6555    2.8475    0.0000 H       1  UNL1        0.0274
    142 H          11.3919    2.3715    0.0000 H       1  UNL1        0.0274
    143 H          11.8679    3.1078    0.0000 H       1  UNL1        0.0274
    144 H           4.6367   -7.3033    0.0000 H       1  UNL1        0.2100
    145 H           7.8063    8.2364    0.0000 H       1  UNL1        0.2100
    146 H           9.5038   -8.4933    0.0000 H       1  UNL1        0.0671
    147 H           3.2338   -4.8733    0.0000 H       1  UNL1        0.2095
    148 H           8.9669   -9.8033    0.0000 H       1  UNL1        0.0648
    149 H           6.6979   -8.8733    0.0000 H       1  UNL1        0.0647
    150 H           7.5639   -9.9933    0.0000 H       1  UNL1        0.0647
    151 H           4.4280    7.2982    0.0000 H       1  UNL1        0.0937
    152 H           9.8329   -7.0633    0.0000 H       1  UNL1        0.2101
    153 H           5.9702  -10.1582    0.0000 H       1  UNL1        0.0584
    154 H           6.7673  -10.1582    0.0000 H       1  UNL1        0.0584
    155 H           5.1156    9.4300    0.0000 H       1  UNL1        0.0671
    156 H           9.8329  -10.3033    0.0000 H       1  UNL1        0.2100
    157 H           7.5639  -10.9933    0.0000 H       1  UNL1        0.2100
    158 H           3.8388   10.0416    0.0000 H       1  UNL1        0.0647
    159 H           2.4218    8.7099    0.0000 H       1  UNL1        0.0587
    160 H           2.5892    7.9306    0.0000 H       1  UNL1        0.0587
    161 H           2.6707    9.2415    0.0000 H       1  UNL1        0.0643
    162 H           4.9658   -9.4933    0.0000 H       1  UNL1        0.2095
    163 H           6.0933    9.6400    0.0000 H       1  UNL1        0.2101
    164 H           4.1457   10.9933    0.0000 H       1  UNL1        0.2100
    165 H           2.0000    9.9832    0.0000 H       1  UNL1        0.2100
@<TRIPOS>BOND
     1    32     1    1
     2     1   111    1
     3    41     2    1
     4    49     2    1
     5    42     3    1
     6    50     3    1
     7     4    49    1
     8     4    56    1
     9     5    50    1
    10     5    57    1
    11    51     6    1
    12    63     6    1
    13    52     7    1
    14     7   130    1
    15    54     8    1
    16     8   136    1
    17    55     9    1
    18     9   137    1
    19    58    10    1
    20    10   144    1
    21    59    11    1
    22    11   145    1
    23    12    62    1
    24    70    12    1
    25    13    63    1
    26    13    68    1
    27    14    61    1
    28    14   147    1
    29    66    15    1
    30    15   152    1
    31    67    16    1
    32    16   156    1
    33    17    70    1
    34    17    74    1
    35    69    18    1
    36    18   157    1
    37    19    71    1
    38    19   162    1
    39    72    20    1
    40    20   163    1
    41    73    21    1
    42    21   164    1
    43    75    22    1
    44    22   165    1
    45    23    24    1
    46    23    25    1
    47    23    29    1
    48    23    38    1
    49    24    27    1
    50    24    33    1
    51    24    39    1
    52    25    26    1
    53    25    31    1
    54    25    76    1
    55    26    28    1
    56    26    37    1
    57    26    40    1
    58    27    30    1
    59    27    32    1
    60    27    77    1
    61    28    34    1
    62    28    35    1
    63    28    78    1
    64    29    34    1
    65    29    79    1
    66    29    80    1
    67    30    36    1
    68    30    42    1
    69    30    81    1
    70    31    32    1
    71    31    82    1
    72    31    83    1
    73    32    84    1
    74    33    36    1
    75    33    85    1
    76    33    86    1
    77    34    87    1
    78    34    88    1
    79    35    41    1
    80    35    44    1
    81    35    45    1
    82    36    89    1
    83    36    90    1
    84    37    43    1
    85    37    91    1
    86    37    92    1
    87    38    93    1
    88    38    94    1
    89    38    95    1
    90    39    96    1
    91    39    97    1
    92    39    98    1
    93    40    99    1
    94    40   100    1
    95    40   101    1
    96    41    43    1
    97    41   102    1
    98    42    46    1
    99    42    47    1
   100    43   103    1
   101    43   104    1
   102    44   105    1
   103    44   106    1
   104    44   107    1
   105    45   108    1
   106    45   109    1
   107    45   110    1
   108    46    48    1
   109    46   112    1
   110    46   113    1
   111    47   114    1
   112    47   115    1
   113    47   116    1
   114    48    53    1
   115    48   117    1
   116    48   118    1
   117    49    51    1
   118    49   119    1
   119    50    52    1
   120    50   120    1
   121    51    54    1
   122    51   121    1
   123    52    55    1
   124    52   122    1
   125    53    60    2
   126    53   123    1
   127    54    58    1
   128    54   124    1
   129    55    59    1
   130    55   125    1
   131    56    58    1
   132    56    61    1
   133    56   126    1
   134    57    59    1
   135    57    62    1
   136    57   127    1
   137    58   128    1
   138    59   129    1
   139    60    64    1
   140    60    65    1
   141    61   131    1
   142    61   132    1
   143    62   133    1
   144    62   134    1
   145    63    66    1
   146    63   135    1
   147    64   138    1
   148    64   139    1
   149    64   140    1
   150    65   141    1
   151    65   142    1
   152    65   143    1
   153    66    67    1
   154    66   146    1
   155    67    69    1
   156    67   148    1
   157    68    69    1
   158    68    71    1
   159    68   149    1
   160    69   150    1
   161    70    72    1
   162    70   151    1
   163    71   153    1
   164    71   154    1
   165    72    73    1
   166    72   155    1
   167    73    75    1
   168    73   158    1
   169    74    75    1
   170    74   159    1
   171    74   160    1
   172    75   161    1
