@<TRIPOS>MOLECULE
IMPHY016876
 44 43 0 0 0
SMALL
GASTEIGER

@<TRIPOS>ATOM
      1 C           5.4641   -0.5600    0.0000 C.3     1  UNL1       -0.0530
      2 C           4.5981   -1.0600    0.0000 C.3     1  UNL1       -0.0531
      3 C           6.3301   -1.0600    0.0000 C.3     1  UNL1       -0.0522
      4 C           3.7320   -0.5600    0.0000 C.3     1  UNL1       -0.0533
      5 C           7.1962   -0.5600    0.0000 C.3     1  UNL1       -0.0422
      6 C           2.8660   -1.0600    0.0000 C.3     1  UNL1       -0.0559
      7 C           8.0622   -1.0600    0.0000 C.3     1  UNL1        0.0091
      8 C           2.0000   -0.5600    0.0000 C.3     1  UNL1       -0.0653
      9 C           8.9282   -0.5600    0.0000 C.1     1  UNL1       -0.1022
     10 C          10.6603    0.4400    0.0000 C.3     1  UNL1        0.0125
     11 C          11.5263   -0.0600    0.0000 C.3     1  UNL1       -0.0239
     12 C           9.7942   -0.0600    0.0000 C.1     1  UNL1       -0.1019
     13 C          12.3923    0.4400    0.0000 C.2     1  UNL1       -0.0871
     14 C          13.2583   -0.0600    0.0000 C.2     1  UNL1       -0.0882
     15 C          14.1244    0.4400    0.0000 C.3     1  UNL1       -0.0376
     16 C          14.9904   -0.0600    0.0000 C.3     1  UNL1       -0.0618
     17 H           5.8626   -0.0851    0.0000 H       1  UNL1        0.0265
     18 H           5.0656   -0.0851    0.0000 H       1  UNL1        0.0265
     19 H           4.1996   -1.5350    0.0000 H       1  UNL1        0.0265
     20 H           4.9966   -1.5350    0.0000 H       1  UNL1        0.0265
     21 H           5.9316   -1.5350    0.0000 H       1  UNL1        0.0266
     22 H           6.7287   -1.5350    0.0000 H       1  UNL1        0.0266
     23 H           4.1306   -0.0851    0.0000 H       1  UNL1        0.0265
     24 H           3.3335   -0.0851    0.0000 H       1  UNL1        0.0265
     25 H           7.5947   -0.0851    0.0000 H       1  UNL1        0.0274
     26 H           6.7976   -0.0851    0.0000 H       1  UNL1        0.0274
     27 H           2.4675   -1.5350    0.0000 H       1  UNL1        0.0263
     28 H           3.2646   -1.5350    0.0000 H       1  UNL1        0.0263
     29 H           7.6636   -1.5350    0.0000 H       1  UNL1        0.0397
     30 H           8.4607   -1.5350    0.0000 H       1  UNL1        0.0397
     31 H           2.3100   -0.0231    0.0000 H       1  UNL1        0.0230
     32 H           1.4631   -0.2500    0.0000 H       1  UNL1        0.0230
     33 H           1.6900   -1.0969    0.0000 H       1  UNL1        0.0230
     34 H          11.0588    0.9149    0.0000 H       1  UNL1        0.0400
     35 H          10.2617    0.9149    0.0000 H       1  UNL1        0.0400
     36 H          11.1278   -0.5349    0.0000 H       1  UNL1        0.0316
     37 H          11.9248   -0.5349    0.0000 H       1  UNL1        0.0316
     38 H          12.3923    1.0600    0.0000 H       1  UNL1        0.0569
     39 H          13.2583   -0.6800    0.0000 H       1  UNL1        0.0569
     40 H          14.5229    0.9149    0.0000 H       1  UNL1        0.0305
     41 H          13.7258    0.9149    0.0000 H       1  UNL1        0.0305
     42 H          14.6804   -0.5969    0.0000 H       1  UNL1        0.0233
     43 H          15.5273   -0.3700    0.0000 H       1  UNL1        0.0233
     44 H          15.3004    0.4769    0.0000 H       1  UNL1        0.0233
@<TRIPOS>BOND
     1     1     2    1
     2     1     3    1
     3     1    17    1
     4     1    18    1
     5     2     4    1
     6     2    19    1
     7     2    20    1
     8     3     5    1
     9     3    21    1
    10     3    22    1
    11     4     6    1
    12     4    23    1
    13     4    24    1
    14     5     7    1
    15     5    25    1
    16     5    26    1
    17     6     8    1
    18     6    27    1
    19     6    28    1
    20     7     9    1
    21     7    29    1
    22     7    30    1
    23     8    31    1
    24     8    32    1
    25     8    33    1
    26     9    12    3
    27    10    11    1
    28    10    12    1
    29    10    34    1
    30    10    35    1
    31    11    13    1
    32    11    36    1
    33    11    37    1
    34    13    14    2
    35    13    38    1
    36    14    15    1
    37    14    39    1
    38    15    16    1
    39    15    40    1
    40    15    41    1
    41    16    42    1
    42    16    43    1
    43    16    44    1
