@<TRIPOS>MOLECULE
IMPHY011379
 45 46 0 0 0
SMALL
GASTEIGER

@<TRIPOS>ATOM
      1 O           4.2690   -0.5000    0.0000 O.3     1  UNL1       -0.3405
      2 O           7.7331    0.5000    0.0000 O.3     1  UNL1       -0.3407
      3 O           6.0010   -0.5000    0.0000 O.3     1  UNL1       -0.3460
      4 O           6.0010    2.5000    0.0000 O.3     1  UNL1       -0.3865
      5 O           6.0010   -2.5000    0.0000 O.3     1  UNL1       -0.3841
      6 O           4.2690   -3.5000    0.0000 O.3     1  UNL1       -0.3864
      7 O           2.5369   -2.5000    0.0000 O.3     1  UNL1       -0.3865
      8 O           7.7331    3.5000    0.0000 O.3     1  UNL1       -0.3864
      9 O           9.4651    2.5000    0.0000 O.3     1  UNL1       -0.3841
     10 O           9.4651    0.5000    0.0000 O.3     1  UNL1       -0.3649
     11 O           2.5369    0.5000    0.0000 O.3     1  UNL1       -0.3924
     12 C           6.8671    1.0000    0.0000 C.3     1  UNL1        0.1134
     13 C           6.8671    2.0000    0.0000 C.3     1  UNL1        0.1119
     14 C           5.1350   -2.0000    0.0000 C.3     1  UNL1        0.1341
     15 C           4.2690   -2.5000    0.0000 C.3     1  UNL1        0.1141
     16 C           5.1350   -1.0000    0.0000 C.3     1  UNL1        0.1880
     17 C           3.4030   -2.0000    0.0000 C.3     1  UNL1        0.1119
     18 C           7.7331    2.5000    0.0000 C.3     1  UNL1        0.1141
     19 C           3.4030   -1.0000    0.0000 C.3     1  UNL1        0.1130
     20 C           8.5991    2.0000    0.0000 C.3     1  UNL1        0.1339
     21 C           6.0010    0.5000    0.0000 C.3     1  UNL1        0.0796
     22 C           8.5991    1.0000    0.0000 C.3     1  UNL1        0.1854
     23 C           2.5369   -0.5000    0.0000 C.3     1  UNL1        0.0730
     24 H           6.8671    0.3800    0.0000 H       1  UNL1        0.0647
     25 H           6.3301    1.6900    0.0000 H       1  UNL1        0.0647
     26 H           5.1350   -2.6200    0.0000 H       1  UNL1        0.0671
     27 H           3.7320   -2.8100    0.0000 H       1  UNL1        0.0648
     28 H           5.1350   -0.3800    0.0000 H       1  UNL1        0.0937
     29 H           2.8660   -1.6900    0.0000 H       1  UNL1        0.0647
     30 H           7.1962    2.8100    0.0000 H       1  UNL1        0.0648
     31 H           3.4030   -0.3800    0.0000 H       1  UNL1        0.0647
     32 H           8.5991    2.6200    0.0000 H       1  UNL1        0.0671
     33 H           5.7890    1.0826    0.0000 H       1  UNL1        0.0587
     34 H           5.3905    0.3923    0.0000 H       1  UNL1        0.0587
     35 H           8.5991    0.3800    0.0000 H       1  UNL1        0.0935
     36 H           1.9264   -0.3923    0.0000 H       1  UNL1        0.0584
     37 H           2.3249   -1.0826    0.0000 H       1  UNL1        0.0584
     38 H           6.0010    3.1200    0.0000 H       1  UNL1        0.2100
     39 H           6.5380   -2.1900    0.0000 H       1  UNL1        0.2101
     40 H           3.7320   -3.8100    0.0000 H       1  UNL1        0.2100
     41 H           2.0000   -2.1900    0.0000 H       1  UNL1        0.2100
     42 H           8.2700    3.8100    0.0000 H       1  UNL1        0.2100
     43 H          10.0021    2.1900    0.0000 H       1  UNL1        0.2101
     44 H           9.4651   -0.1200    0.0000 H       1  UNL1        0.2126
     45 H           2.0000    0.8100    0.0000 H       1  UNL1        0.2095
@<TRIPOS>BOND
     1     1    16    1
     2     1    19    1
     3     2    12    1
     4     2    22    1
     5    16     3    1
     6     3    21    1
     7    13     4    1
     8     4    38    1
     9    14     5    1
    10     5    39    1
    11    15     6    1
    12     6    40    1
    13    17     7    1
    14     7    41    1
    15    18     8    1
    16     8    42    1
    17    20     9    1
    18     9    43    1
    19    22    10    1
    20    10    44    1
    21    11    23    1
    22    11    45    1
    23    12    13    1
    24    12    21    1
    25    12    24    1
    26    13    18    1
    27    13    25    1
    28    14    15    1
    29    14    16    1
    30    14    26    1
    31    15    17    1
    32    15    27    1
    33    16    28    1
    34    17    19    1
    35    17    29    1
    36    18    20    1
    37    18    30    1
    38    19    23    1
    39    19    31    1
    40    20    22    1
    41    20    32    1
    42    21    33    1
    43    21    34    1
    44    22    35    1
    45    23    36    1
    46    23    37    1
