@<TRIPOS>MOLECULE
IMPHY017841
 42 42 0 0 0
SMALL
GASTEIGER

@<TRIPOS>ATOM
      1 O           5.4641   -2.5000    0.0000 O.3     1  UNL1       -0.4647
      2 O           6.3301   -1.0000    0.0000 O.2     1  UNL1       -0.2453
      3 C           4.5981    2.0000    0.0000 C.3     1  UNL1       -0.0078
      4 C           3.7320    1.5000    0.0000 C.3     1  UNL1       -0.0110
      5 C           5.4641    1.5000    0.0000 C.3     1  UNL1       -0.0431
      6 C           3.7320    0.5000    0.0000 C.3     1  UNL1       -0.0387
      7 C           4.5981    0.0000    0.0000 C.3     1  UNL1       -0.0091
      8 C           5.4641    0.5000    0.0000 C.3     1  UNL1       -0.0452
      9 C           4.0981    2.8660    0.0000 C.3     1  UNL1       -0.0556
     10 C           2.8660    2.0000    0.0000 C.2     1  UNL1       -0.0758
     11 C           5.0981    2.8660    0.0000 C.2     1  UNL1       -0.0846
     12 C           4.5981   -1.0000    0.0000 C.2     1  UNL1        0.0326
     13 C           2.0000    1.5000    0.0000 C.3     1  UNL1       -0.0437
     14 C           2.8660    3.0000    0.0000 C.2     1  UNL1       -0.0994
     15 C           6.0981    2.8660    0.0000 C.2     1  UNL1       -0.1021
     16 C           5.4641   -1.5000    0.0000 C.2     1  UNL1        0.3346
     17 C           3.7320   -1.5000    0.0000 C.2     1  UNL1       -0.0885
     18 C           6.3301   -3.0000    0.0000 C.3     1  UNL1        0.0820
     19 H           3.7320    2.1200    0.0000 H       1  UNL1        0.0354
     20 H           6.0747    1.3923    0.0000 H       1  UNL1        0.0274
     21 H           5.6762    2.0826    0.0000 H       1  UNL1        0.0274
     22 H           3.1215    0.6077    0.0000 H       1  UNL1        0.0277
     23 H           3.5200   -0.0826    0.0000 H       1  UNL1        0.0277
     24 H           5.1350   -0.3100    0.0000 H       1  UNL1        0.0351
     25 H           5.6762   -0.0826    0.0000 H       1  UNL1        0.0271
     26 H           6.0747    0.6077    0.0000 H       1  UNL1        0.0271
     27 H           4.6350    3.1760    0.0000 H       1  UNL1        0.0238
     28 H           3.7881    3.4030    0.0000 H       1  UNL1        0.0238
     29 H           3.5611    2.5560    0.0000 H       1  UNL1        0.0238
     30 H           4.7881    3.4030    0.0000 H       1  UNL1        0.0572
     31 H           1.6900    2.0369    0.0000 H       1  UNL1        0.0274
     32 H           1.4631    1.1900    0.0000 H       1  UNL1        0.0274
     33 H           2.3100    0.9631    0.0000 H       1  UNL1        0.0274
     34 H           3.4030    3.3100    0.0000 H       1  UNL1        0.0534
     35 H           2.3291    3.3100    0.0000 H       1  UNL1        0.0534
     36 H           6.4081    2.3291    0.0000 H       1  UNL1        0.0532
     37 H           6.4081    3.4030    0.0000 H       1  UNL1        0.0532
     38 H           3.1951   -1.1900    0.0000 H       1  UNL1        0.0540
     39 H           3.7320   -2.1200    0.0000 H       1  UNL1        0.0540
     40 H           6.0201   -3.5369    0.0000 H       1  UNL1        0.0661
     41 H           6.8671   -3.3100    0.0000 H       1  UNL1        0.0661
     42 H           6.6401   -2.4631    0.0000 H       1  UNL1        0.0661
@<TRIPOS>BOND
     1     1    16    1
     2     1    18    1
     3     2    16    2
     4     3     4    1
     5     3     5    1
     6     3     9    1
     7     3    11    1
     8     4     6    1
     9     4    10    1
    10     4    19    1
    11     5     8    1
    12     5    20    1
    13     5    21    1
    14     6     7    1
    15     6    22    1
    16     6    23    1
    17     7     8    1
    18     7    12    1
    19     7    24    1
    20     8    25    1
    21     8    26    1
    22     9    27    1
    23     9    28    1
    24     9    29    1
    25    10    13    1
    26    10    14    2
    27    11    15    2
    28    11    30    1
    29    12    16    1
    30    12    17    2
    31    13    31    1
    32    13    32    1
    33    13    33    1
    34    14    34    1
    35    14    35    1
    36    15    36    1
    37    15    37    1
    38    17    38    1
    39    17    39    1
    40    18    40    1
    41    18    41    1
    42    18    42    1
