@<TRIPOS>MOLECULE
IMPHY017420
 39 38 0 0 0
SMALL
GASTEIGER

@<TRIPOS>ATOM
      1 O           8.0622    0.0000    0.0000 O.3     1  UNL1       -0.4643
      2 O           7.1962   -1.5000    0.0000 O.2     1  UNL1       -0.2509
      3 C           4.5981    0.0000    0.0000 C.3     1  UNL1       -0.0526
      4 C           3.7320   -0.5000    0.0000 C.3     1  UNL1       -0.0533
      5 C           5.4641   -0.5000    0.0000 C.3     1  UNL1       -0.0430
      6 C           2.8660   -0.0000    0.0000 C.3     1  UNL1       -0.0559
      7 C           6.3301    0.0000    0.0000 C.3     1  UNL1        0.0449
      8 C           2.0000   -0.5000    0.0000 C.3     1  UNL1       -0.0653
      9 C           7.1962   -0.5000    0.0000 C.2     1  UNL1        0.3071
     10 C           8.9282   -0.5000    0.0000 C.3     1  UNL1        0.0959
     11 C           9.7942    0.0000    0.0000 C.3     1  UNL1       -0.0003
     12 C          10.6603   -0.5000    0.0000 C.2     1  UNL1       -0.0847
     13 C          11.5263   -0.0000    0.0000 C.2     1  UNL1       -0.0881
     14 C          11.5263    1.0000    0.0000 C.3     1  UNL1       -0.0376
     15 C          12.3923    1.5000    0.0000 C.3     1  UNL1       -0.0618
     16 H           4.9966    0.4749    0.0000 H       1  UNL1        0.0265
     17 H           4.1996    0.4749    0.0000 H       1  UNL1        0.0265
     18 H           3.3335   -0.9749    0.0000 H       1  UNL1        0.0265
     19 H           4.1306   -0.9749    0.0000 H       1  UNL1        0.0265
     20 H           5.0656   -0.9749    0.0000 H       1  UNL1        0.0270
     21 H           5.8626   -0.9749    0.0000 H       1  UNL1        0.0270
     22 H           3.2646    0.4749    0.0000 H       1  UNL1        0.0263
     23 H           2.4675    0.4749    0.0000 H       1  UNL1        0.0263
     24 H           6.7287    0.4749    0.0000 H       1  UNL1        0.0377
     25 H           5.9316    0.4749    0.0000 H       1  UNL1        0.0377
     26 H           1.6900    0.0369    0.0000 H       1  UNL1        0.0230
     27 H           1.4631   -0.8100    0.0000 H       1  UNL1        0.0230
     28 H           2.3100   -1.0369    0.0000 H       1  UNL1        0.0230
     29 H           8.5297   -0.9749    0.0000 H       1  UNL1        0.0700
     30 H           9.3267   -0.9749    0.0000 H       1  UNL1        0.0700
     31 H          10.1928    0.4749    0.0000 H       1  UNL1        0.0340
     32 H           9.3957    0.4749    0.0000 H       1  UNL1        0.0340
     33 H          10.6603   -1.1200    0.0000 H       1  UNL1        0.0570
     34 H          12.0632   -0.3100    0.0000 H       1  UNL1        0.0569
     35 H          11.3142    1.5826    0.0000 H       1  UNL1        0.0305
     36 H          10.9157    0.8923    0.0000 H       1  UNL1        0.0305
     37 H          12.7023    0.9631    0.0000 H       1  UNL1        0.0233
     38 H          12.9292    1.8100    0.0000 H       1  UNL1        0.0233
     39 H          12.0823    2.0369    0.0000 H       1  UNL1        0.0233
@<TRIPOS>BOND
     1     1     9    1
     2     1    10    1
     3     2     9    2
     4     3     4    1
     5     3     5    1
     6     3    16    1
     7     3    17    1
     8     4     6    1
     9     4    18    1
    10     4    19    1
    11     5     7    1
    12     5    20    1
    13     5    21    1
    14     6     8    1
    15     6    22    1
    16     6    23    1
    17     7     9    1
    18     7    24    1
    19     7    25    1
    20     8    26    1
    21     8    27    1
    22     8    28    1
    23    10    11    1
    24    10    29    1
    25    10    30    1
    26    11    12    1
    27    11    31    1
    28    11    32    1
    29    12    13    2
    30    12    33    1
    31    13    14    1
    32    13    34    1
    33    14    15    1
    34    14    35    1
    35    14    36    1
    36    15    37    1
    37    15    38    1
    38    15    39    1
