@<TRIPOS>MOLECULE
IMPHY008765
 45 47 0 0 0
SMALL
GASTEIGER

@<TRIPOS>ATOM
      1 O           3.7782    1.7121    0.0000 O.3     1  UNL1       -0.5064
      2 O           7.3022   -0.3225    0.0000 O.3     1  UNL1       -0.5058
      3 O           7.3219    2.7258    0.0000 O.2     1  UNL1       -0.2956
      4 C           3.8000   -1.3193    0.0000 C.3     1  UNL1       -0.0261
      5 C           3.8000   -0.3193    0.0000 C.3     1  UNL1        0.0001
      6 C           2.9061   -1.8540    0.0000 C.3     1  UNL1       -0.0312
      7 C           2.9061    0.2153    0.0000 C.3     1  UNL1       -0.0432
      8 C           2.0000   -1.3402    0.0000 C.3     1  UNL1       -0.0476
      9 C           4.6660   -1.8193    0.0000 C.3     1  UNL1       -0.0448
     10 C           2.0000   -0.2985    0.0000 C.3     1  UNL1       -0.0518
     11 C           4.6660    0.1807    0.0000 C.ar    1  UNL1        0.0069
     12 C           5.5321   -1.3193    0.0000 C.3     1  UNL1       -0.0235
     13 C           3.8000    0.6807    0.0000 C.3     1  UNL1       -0.0551
     14 C           2.4161   -2.7258    0.0000 C.3     1  UNL1       -0.0595
     15 C           3.4160   -2.7142    0.0000 C.3     1  UNL1       -0.0595
     16 C           5.5321   -0.3193    0.0000 C.ar    1  UNL1        0.0019
     17 C           4.6500    1.2222    0.0000 C.ar    1  UNL1        0.1217
     18 C           6.4421    0.1875    0.0000 C.ar    1  UNL1        0.1307
     19 C           5.5480    1.7499    0.0000 C.ar    1  UNL1       -0.0062
     20 C           6.4501    1.2291    0.0000 C.ar    1  UNL1        0.0593
     21 C           7.3180    1.7258    0.0000 C.2     1  UNL1        0.1538
     22 H           3.8066   -2.1693    0.0000 H       1  UNL1        0.0314
     23 H           3.3107    0.6851    0.0000 H       1  UNL1        0.0274
     24 H           2.5124    0.6943    0.0000 H       1  UNL1        0.0274
     25 H           1.3891   -1.2341    0.0000 H       1  UNL1        0.0271
     26 H           1.7909   -1.9238    0.0000 H       1  UNL1        0.0271
     27 H           4.2675   -2.2943    0.0000 H       1  UNL1        0.0272
     28 H           5.0646   -2.2943    0.0000 H       1  UNL1        0.0272
     29 H           1.7909    0.2852    0.0000 H       1  UNL1        0.0266
     30 H           1.3891   -0.4046    0.0000 H       1  UNL1        0.0266
     31 H           5.7441   -1.9020    0.0000 H       1  UNL1        0.0315
     32 H           6.1426   -1.2117    0.0000 H       1  UNL1        0.0315
     33 H           4.4200    0.6807    0.0000 H       1  UNL1        0.0238
     34 H           3.8000    1.3007    0.0000 H       1  UNL1        0.0238
     35 H           3.1800    0.6807    0.0000 H       1  UNL1        0.0238
     36 H           2.8827   -3.0304    0.0000 H       1  UNL1        0.0235
     37 H           3.7322   -3.2475    0.0000 H       1  UNL1        0.0235
     38 H           1.8756   -2.4220    0.0000 H       1  UNL1        0.0235
     39 H           2.1123   -3.2662    0.0000 H       1  UNL1        0.0235
     40 H           3.9494   -2.3980    0.0000 H       1  UNL1        0.0235
     41 H           2.9566   -3.0295    0.0000 H       1  UNL1        0.0235
     42 H           5.5456    2.3699    0.0000 H       1  UNL1        0.0662
     43 H           3.7711    2.3321    0.0000 H       1  UNL1        0.2921
     44 H           7.2951   -0.9424    0.0000 H       1  UNL1        0.2922
     45 H           7.8538    1.4137    0.0000 H       1  UNL1        0.1083
@<TRIPOS>BOND
     1     1    17    1
     2     1    43    1
     3     2    18    1
     4     2    44    1
     5     3    21    2
     6     4     5    1
     7     4     6    1
     8     4     9    1
     9     4    22    1
    10     5     7    1
    11     5    11    1
    12     5    13    1
    13     6     8    1
    14     6    14    1
    15     6    15    1
    16     7    10    1
    17     7    23    1
    18     7    24    1
    19     8    10    1
    20     8    25    1
    21     8    26    1
    22     9    12    1
    23     9    27    1
    24     9    28    1
    25    10    29    1
    26    10    30    1
    27    11    16   ar
    28    11    17   ar
    29    12    16    1
    30    12    31    1
    31    12    32    1
    32    13    33    1
    33    13    34    1
    34    13    35    1
    35    14    38    1
    36    14    39    1
    37    14    41    1
    38    15    36    1
    39    15    37    1
    40    15    40    1
    41    16    18   ar
    42    17    19   ar
    43    18    20   ar
    44    19    20   ar
    45    19    42    1
    46    20    21    1
    47    21    45    1
