@<TRIPOS>MOLECULE
IMPHY016228
 22 22 0 0 0
SMALL
GASTEIGER

@<TRIPOS>ATOM
      1 O           2.5369    0.2500    0.0000 O.3     1  UNL1       -0.5065
      2 C           4.2690    0.2500    0.0000 C.ar    1  UNL1       -0.0060
      3 C           4.2690    1.2500    0.0000 C.3     1  UNL1       -0.0271
      4 C           5.1350   -0.2500    0.0000 C.ar    1  UNL1       -0.0522
      5 C           5.1350   -1.2500    0.0000 C.ar    1  UNL1       -0.0500
      6 C           3.4030   -0.2500    0.0000 C.ar    1  UNL1        0.1200
      7 C           4.2690   -1.7500    0.0000 C.ar    1  UNL1       -0.0554
      8 C           3.4030   -1.2500    0.0000 C.ar    1  UNL1       -0.0197
      9 C           5.1350    1.7500    0.0000 C.3     1  UNL1       -0.0611
     10 C           6.0010   -1.7500    0.0000 C.3     1  UNL1       -0.0397
     11 H           4.0569    1.8326    0.0000 H       1  UNL1        0.0312
     12 H           3.6584    1.1423    0.0000 H       1  UNL1        0.0312
     13 H           5.6720    0.0600    0.0000 H       1  UNL1        0.0624
     14 H           4.2690   -2.3700    0.0000 H       1  UNL1        0.0621
     15 H           2.8660   -1.5600    0.0000 H       1  UNL1        0.0654
     16 H           5.4450    1.2131    0.0000 H       1  UNL1        0.0233
     17 H           5.6720    2.0600    0.0000 H       1  UNL1        0.0233
     18 H           4.8250    2.2869    0.0000 H       1  UNL1        0.0233
     19 H           5.6910   -2.2869    0.0000 H       1  UNL1        0.0278
     20 H           6.5380   -2.0600    0.0000 H       1  UNL1        0.0278
     21 H           6.3110   -1.2131    0.0000 H       1  UNL1        0.0278
     22 H           2.0000   -0.0600    0.0000 H       1  UNL1        0.2921
@<TRIPOS>BOND
     1     1     6    1
     2     1    22    1
     3     2     3    1
     4     2     4   ar
     5     2     6   ar
     6     3     9    1
     7     3    11    1
     8     3    12    1
     9     4     5   ar
    10     4    13    1
    11     5     7   ar
    12     5    10    1
    13     6     8   ar
    14     7     8   ar
    15     7    14    1
    16     8    15    1
    17     9    16    1
    18     9    17    1
    19     9    18    1
    20    10    19    1
    21    10    20    1
    22    10    21    1
