@<TRIPOS>MOLECULE
IMPHY017287
 60 60 0 0 0
SMALL
GASTEIGER

@<TRIPOS>ATOM
      1 O           8.9282   -1.7500    0.0000 O.3     1  UNL1       -0.4611
      2 O           5.4641   -3.7500    0.0000 O.3     1  UNL1       -0.4611
      3 O           7.1962   -1.7500    0.0000 O.2     1  UNL1       -0.2449
      4 O           6.3301   -2.2500    0.0000 O.2     1  UNL1       -0.2449
      5 C          11.5263    2.7500    0.0000 C.3     1  UNL1       -0.0528
      6 C          11.5263    3.7500    0.0000 C.3     1  UNL1       -0.0507
      7 C          10.6603    2.2500    0.0000 C.3     1  UNL1       -0.0530
      8 C          12.3923    4.2500    0.0000 C.3     1  UNL1       -0.0467
      9 C          10.6603    1.2500    0.0000 C.3     1  UNL1       -0.0530
     10 C           9.7942    0.7500    0.0000 C.3     1  UNL1       -0.0500
     11 C           9.7942   -0.2500    0.0000 C.3     1  UNL1       -0.0185
     12 C          12.3923    5.2500    0.0000 C.3     1  UNL1       -0.0627
     13 C          13.2583    3.7500    0.0000 C.3     1  UNL1       -0.0627
     14 C           8.9282   -0.7500    0.0000 C.3     1  UNL1        0.0928
     15 C           8.0622   -2.2500    0.0000 C.2     1  UNL1        0.3400
     16 C           8.0622   -3.2500    0.0000 C.ar    1  UNL1        0.0729
     17 C           3.7320   -3.7500    0.0000 C.3     1  UNL1       -0.0188
     18 C           7.1962   -3.7500    0.0000 C.ar    1  UNL1        0.0729
     19 C           2.8660   -3.2500    0.0000 C.3     1  UNL1       -0.0528
     20 C           4.5981   -3.2500    0.0000 C.3     1  UNL1        0.0928
     21 C           8.9282   -3.7500    0.0000 C.ar    1  UNL1       -0.0470
     22 C           6.3301   -3.2500    0.0000 C.2     1  UNL1        0.3400
     23 C           7.1962   -4.7500    0.0000 C.ar    1  UNL1       -0.0470
     24 C           2.0000   -3.7500    0.0000 C.3     1  UNL1       -0.0652
     25 C           8.9282   -4.7500    0.0000 C.ar    1  UNL1       -0.0609
     26 C           8.0622   -5.2500    0.0000 C.ar    1  UNL1       -0.0609
     27 H          11.7383    2.1674    0.0000 H       1  UNL1        0.0265
     28 H          12.1369    2.8577    0.0000 H       1  UNL1        0.0265
     29 H          11.3142    4.3326    0.0000 H       1  UNL1        0.0268
     30 H          10.9157    3.6423    0.0000 H       1  UNL1        0.0268
     31 H          10.4482    2.8326    0.0000 H       1  UNL1        0.0265
     32 H          10.0497    2.1423    0.0000 H       1  UNL1        0.0265
     33 H          11.8554    4.5600    0.0000 H       1  UNL1        0.0295
     34 H          10.8723    0.6674    0.0000 H       1  UNL1        0.0265
     35 H          11.2708    1.3577    0.0000 H       1  UNL1        0.0265
     36 H           9.5822    1.3326    0.0000 H       1  UNL1        0.0266
     37 H           9.1836    0.6423    0.0000 H       1  UNL1        0.0266
     38 H          10.0063   -0.8326    0.0000 H       1  UNL1        0.0298
     39 H          10.4048   -0.1423    0.0000 H       1  UNL1        0.0298
     40 H          13.0123    5.2500    0.0000 H       1  UNL1        0.0232
     41 H          12.3923    5.8700    0.0000 H       1  UNL1        0.0232
     42 H          11.7723    5.2500    0.0000 H       1  UNL1        0.0232
     43 H          12.9483    3.2131    0.0000 H       1  UNL1        0.0232
     44 H          13.7953    3.4400    0.0000 H       1  UNL1        0.0232
     45 H          13.5683    4.2869    0.0000 H       1  UNL1        0.0232
     46 H           8.7162   -0.1674    0.0000 H       1  UNL1        0.0697
     47 H           8.3176   -0.8577    0.0000 H       1  UNL1        0.0697
     48 H           3.3335   -4.2250    0.0000 H       1  UNL1        0.0298
     49 H           4.1306   -4.2250    0.0000 H       1  UNL1        0.0298
     50 H           3.2646   -2.7750    0.0000 H       1  UNL1        0.0264
     51 H           2.4675   -2.7750    0.0000 H       1  UNL1        0.0264
     52 H           4.9966   -2.7750    0.0000 H       1  UNL1        0.0697
     53 H           4.1996   -2.7750    0.0000 H       1  UNL1        0.0697
     54 H           9.4651   -3.4400    0.0000 H       1  UNL1        0.0626
     55 H           6.6592   -5.0600    0.0000 H       1  UNL1        0.0626
     56 H           1.6900   -3.2131    0.0000 H       1  UNL1        0.0230
     57 H           1.4631   -4.0600    0.0000 H       1  UNL1        0.0230
     58 H           2.3100   -4.2869    0.0000 H       1  UNL1        0.0230
     59 H           9.4651   -5.0600    0.0000 H       1  UNL1        0.0618
     60 H           8.0622   -5.8700    0.0000 H       1  UNL1        0.0618
@<TRIPOS>BOND
     1     1    14    1
     2     1    15    1
     3     2    20    1
     4     2    22    1
     5     3    15    2
     6     4    22    2
     7     5     6    1
     8     5     7    1
     9     5    27    1
    10     5    28    1
    11     6     8    1
    12     6    29    1
    13     6    30    1
    14     7     9    1
    15     7    31    1
    16     7    32    1
    17     8    12    1
    18     8    13    1
    19     8    33    1
    20     9    10    1
    21     9    34    1
    22     9    35    1
    23    10    11    1
    24    10    36    1
    25    10    37    1
    26    11    14    1
    27    11    38    1
    28    11    39    1
    29    12    40    1
    30    12    41    1
    31    12    42    1
    32    13    43    1
    33    13    44    1
    34    13    45    1
    35    14    46    1
    36    14    47    1
    37    15    16    1
    38    16    18   ar
    39    16    21   ar
    40    17    19    1
    41    17    20    1
    42    17    48    1
    43    17    49    1
    44    18    22    1
    45    18    23   ar
    46    19    24    1
    47    19    50    1
    48    19    51    1
    49    20    52    1
    50    20    53    1
    51    21    25   ar
    52    21    54    1
    53    23    26   ar
    54    23    55    1
    55    24    56    1
    56    24    57    1
    57    24    58    1
    58    25    26   ar
    59    25    59    1
    60    26    60    1
