@<TRIPOS>MOLECULE
IMPHY017159
 24 23 0 0 0
SMALL
GASTEIGER

@<TRIPOS>ATOM
      1 O           6.3301   -0.2500    0.0000 O.3     1  UNL1       -0.3918
      2 C           4.5981   -0.2500    0.0000 C.3     1  UNL1       -0.0181
      3 C           3.7320    0.2500    0.0000 C.3     1  UNL1       -0.0484
      4 C           5.4641    0.2500    0.0000 C.3     1  UNL1        0.0550
      5 C           2.8660   -0.2500    0.0000 C.3     1  UNL1       -0.0556
      6 C           4.5981   -1.2500    0.0000 C.3     1  UNL1       -0.0601
      7 C           5.4641    1.2500    0.0000 C.3     1  UNL1       -0.0387
      8 C           2.0000    0.2500    0.0000 C.3     1  UNL1       -0.0653
      9 H           4.0611   -0.5600    0.0000 H       1  UNL1        0.0323
     10 H           4.1306    0.7249    0.0000 H       1  UNL1        0.0269
     11 H           3.3335    0.7249    0.0000 H       1  UNL1        0.0269
     12 H           5.4641   -0.3700    0.0000 H       1  UNL1        0.0593
     13 H           2.4675   -0.7249    0.0000 H       1  UNL1        0.0263
     14 H           3.2646   -0.7249    0.0000 H       1  UNL1        0.0263
     15 H           3.9781   -1.2500    0.0000 H       1  UNL1        0.0233
     16 H           4.5981   -1.8700    0.0000 H       1  UNL1        0.0233
     17 H           5.2181   -1.2500    0.0000 H       1  UNL1        0.0233
     18 H           6.0841    1.2500    0.0000 H       1  UNL1        0.0255
     19 H           5.4641    1.8700    0.0000 H       1  UNL1        0.0255
     20 H           4.8441    1.2500    0.0000 H       1  UNL1        0.0255
     21 H           2.3100    0.7869    0.0000 H       1  UNL1        0.0230
     22 H           1.4631    0.5600    0.0000 H       1  UNL1        0.0230
     23 H           1.6900   -0.2869    0.0000 H       1  UNL1        0.0230
     24 H           6.8671    0.0600    0.0000 H       1  UNL1        0.2098
@<TRIPOS>BOND
     1     1     4    1
     2     1    24    1
     3     2     3    1
     4     2     4    1
     5     2     6    1
     6     2     9    1
     7     3     5    1
     8     3    10    1
     9     3    11    1
    10     4     7    1
    11     4    12    1
    12     5     8    1
    13     5    13    1
    14     5    14    1
    15     6    15    1
    16     6    16    1
    17     6    17    1
    18     7    18    1
    19     7    19    1
    20     7    20    1
    21     8    21    1
    22     8    22    1
    23     8    23    1
