@<TRIPOS>MOLECULE
IMPHY005841
 18 18 0 0 0
SMALL
GASTEIGER

@<TRIPOS>ATOM
      1 O           5.5910    0.1237    0.0000 O.3     1  LEU1       -0.4795
      2 OXT         5.0558   -1.5236    0.0000 O.2     1  LEU1       -0.2492
      3 N           3.0878   -0.8242    0.0000 N.3     1  LEU1       -0.3002
      4 CA          3.8968   -0.2365    0.0000 C.3     1  LEU1        0.1097
      5 CB          3.5878    0.7146    0.0000 C.3     1  LEU1       -0.0049
      6 CD1         2.2788   -0.2365    0.0000 C.3     1  LEU1        0.0178
      7 CG          2.5878    0.7146    0.0000 C.2     1  LEU1       -0.0609
      8 C           4.8479   -0.5455    0.0000 C.2     1  LEU1        0.3222
      9 CD2         2.0000    1.5236    0.0000 C.2     1  LEU1       -0.0982
     10 HA          3.9938   -0.8488    0.0000 H       1  LEU1        0.0579
     11 HB1         4.1942    0.8435    0.0000 H       1  LEU1        0.0331
     12 HB2         3.5230    1.3312    0.0000 H       1  LEU1        0.0331
     13 HD11        1.7124    0.0157    0.0000 H       1  LEU1        0.0470
     14 HD12        1.9688   -0.7734    0.0000 H       1  LEU1        0.0470
     15 H           3.0878   -1.4442    0.0000 H       1  LEU1        0.1230
     16 HD21        2.2522    2.0900    0.0000 H       1  LEU1        0.0535
     17 HD22        1.3834    1.4588    0.0000 H       1  LEU1        0.0535
     18 H           6.1807   -0.0679    0.0000 H       1  LEU1        0.2951
@<TRIPOS>BOND
     1     1     8    1
     2     1    18    1
     3     2     8    2
     4     3     4    1
     5     3     6    1
     6     3    15    1
     7     4     5    1
     8     4     8    1
     9     4    10    1
    10     5     7    1
    11     5    11    1
    12     5    12    1
    13     6     7    1
    14     6    13    1
    15     6    14    1
    16     7     9    2
    17     9    16    1
    18     9    17    1
