@<TRIPOS>MOLECULE
IMPHY014305
 32 32 0 0 0
SMALL
GASTEIGER

@<TRIPOS>ATOM
      1 O           4.5981    0.9050    0.0000 O.3     1  UNL1       -0.3315
      2 O           2.8660   -1.0950    0.0000 O.3     1  UNL1       -0.3740
      3 O           4.5981   -2.0950    0.0000 O.3     1  UNL1       -0.3864
      4 O           6.3301   -1.0950    0.0000 O.3     1  UNL1       -0.3841
      5 O           6.3301    0.9050    0.0000 O.3     1  UNL1       -0.3519
      6 O           2.8660    1.9050    0.0000 O.3     1  UNL1       -0.4661
      7 O           2.0000    0.4050    0.0000 O.2     1  UNL1       -0.2478
      8 C           4.5981   -1.0950    0.0000 C.3     1  UNL1        0.1148
      9 C           3.7320   -0.5950    0.0000 C.3     1  UNL1        0.1232
     10 C           5.4641   -0.5950    0.0000 C.3     1  UNL1        0.1341
     11 C           3.7320    0.4050    0.0000 C.3     1  UNL1        0.1863
     12 C           5.4641    0.4050    0.0000 C.3     1  UNL1        0.1882
     13 C           2.8660    0.9050    0.0000 C.2     1  UNL1        0.3388
     14 C           2.8660   -2.0950    0.0000 C.3     1  UNL1        0.0370
     15 C           6.3301    1.9050    0.0000 C.3     1  UNL1        0.0395
     16 C           2.0000    2.4050    0.0000 C.3     1  UNL1        0.0817
     17 H           4.0611   -1.4050    0.0000 H       1  UNL1        0.0648
     18 H           3.1951   -0.2850    0.0000 H       1  UNL1        0.0654
     19 H           5.4641   -1.2150    0.0000 H       1  UNL1        0.0671
     20 H           3.7320    1.0250    0.0000 H       1  UNL1        0.0742
     21 H           5.4641    1.0250    0.0000 H       1  UNL1        0.0937
     22 H           5.1350   -2.4050    0.0000 H       1  UNL1        0.2100
     23 H           6.8671   -0.7850    0.0000 H       1  UNL1        0.2101
     24 H           2.2460   -2.0950    0.0000 H       1  UNL1        0.0524
     25 H           2.8660   -2.7150    0.0000 H       1  UNL1        0.0524
     26 H           3.4860   -2.0950    0.0000 H       1  UNL1        0.0524
     27 H           6.9501    1.9050    0.0000 H       1  UNL1        0.0525
     28 H           6.3301    2.5250    0.0000 H       1  UNL1        0.0525
     29 H           5.7101    1.9050    0.0000 H       1  UNL1        0.0525
     30 H           2.3100    2.9419    0.0000 H       1  UNL1        0.0661
     31 H           1.4631    2.7150    0.0000 H       1  UNL1        0.0661
     32 H           1.6900    1.8681    0.0000 H       1  UNL1        0.0661
@<TRIPOS>BOND
     1     1    11    1
     2     1    12    1
     3     9     2    1
     4     2    14    1
     5     8     3    1
     6     3    22    1
     7    10     4    1
     8     4    23    1
     9    12     5    1
    10     5    15    1
    11     6    13    1
    12     6    16    1
    13     7    13    2
    14     8     9    1
    15     8    10    1
    16     8    17    1
    17     9    11    1
    18     9    18    1
    19    10    12    1
    20    10    19    1
    21    11    13    1
    22    11    20    1
    23    12    21    1
    24    14    24    1
    25    14    25    1
    26    14    26    1
    27    15    27    1
    28    15    28    1
    29    15    29    1
    30    16    30    1
    31    16    31    1
    32    16    32    1
