@<TRIPOS>MOLECULE
IMPHY012346
 23 23 0 0 0
SMALL
GASTEIGER

@<TRIPOS>ATOM
      1 N           4.5981   -1.0000    0.0000 N.ar    1  UNL1       -0.2565
      2 C           3.7320   -0.5000    0.0000 C.ar    1  UNL1        0.0413
      3 C           5.4641   -0.5000    0.0000 C.ar    1  UNL1        0.0413
      4 C           2.8660   -1.0000    0.0000 C.3     1  UNL1       -0.0132
      5 C           6.3301   -1.0000    0.0000 C.3     1  UNL1       -0.0132
      6 C           3.7320    0.5000    0.0000 C.ar    1  UNL1       -0.0404
      7 C           5.4641    0.5000    0.0000 C.ar    1  UNL1       -0.0404
      8 C           4.5981    1.0000    0.0000 C.ar    1  UNL1       -0.0584
      9 C           2.0000   -0.5000    0.0000 C.3     1  UNL1       -0.0598
     10 C           7.1962   -0.5000    0.0000 C.3     1  UNL1       -0.0598
     11 H           2.4675   -1.4750    0.0000 H       1  UNL1        0.0326
     12 H           3.2646   -1.4750    0.0000 H       1  UNL1        0.0326
     13 H           5.9316   -1.4750    0.0000 H       1  UNL1        0.0326
     14 H           6.7287   -1.4750    0.0000 H       1  UNL1        0.0326
     15 H           3.1951    0.8100    0.0000 H       1  UNL1        0.0635
     16 H           6.0010    0.8100    0.0000 H       1  UNL1        0.0635
     17 H           4.5981    1.6200    0.0000 H       1  UNL1        0.0619
     18 H           2.3100    0.0369    0.0000 H       1  UNL1        0.0233
     19 H           1.4631   -0.1900    0.0000 H       1  UNL1        0.0233
     20 H           1.6900   -1.0369    0.0000 H       1  UNL1        0.0233
     21 H           7.5062   -1.0369    0.0000 H       1  UNL1        0.0233
     22 H           7.7331   -0.1900    0.0000 H       1  UNL1        0.0233
     23 H           6.8862    0.0369    0.0000 H       1  UNL1        0.0233
@<TRIPOS>BOND
     1     1     2   ar
     2     1     3   ar
     3     2     4    1
     4     2     6   ar
     5     3     5    1
     6     3     7   ar
     7     4     9    1
     8     4    11    1
     9     4    12    1
    10     5    10    1
    11     5    13    1
    12     5    14    1
    13     6     8   ar
    14     6    15    1
    15     7     8   ar
    16     7    16    1
    17     8    17    1
    18     9    18    1
    19     9    19    1
    20     9    20    1
    21    10    21    1
    22    10    22    1
    23    10    23    1
