@<TRIPOS>MOLECULE
IMPHY005912
 91 97 0 0 0
SMALL
GASTEIGER

@<TRIPOS>ATOM
      1 O           3.9785    1.0656    0.0000 O.3     1  UNL1       -0.3378
      2 O           5.0437    3.2946    0.0000 O.3     1  UNL1       -0.3853
      3 O           7.6418    1.7946    0.0000 O.3     1  UNL1       -0.3852
      4 O           2.3123   -0.3927    0.0000 O.3     1  UNL1       -0.3615
      5 O           7.6418    4.7946    0.0000 O.3     1  UNL1       -0.3827
      6 O           3.1679   -2.1933    0.0000 O.3     1  UNL1       -0.4527
      7 O           6.2758    5.1607    0.0000 O.3     1  UNL1       -0.3887
      8 O           9.0257    5.2011    0.0000 O.3     1  UNL1       -0.3843
      9 O           4.5740   -3.2047    0.0000 O.2     1  UNL1       -0.2453
     10 N           9.4418    2.7738    0.0000 N.3     1  UNL1       -0.2959
     11 C           5.5778    1.2198    0.0000 C.3     1  UNL1        0.0869
     12 C           4.9829    0.3723    0.0000 C.3     1  UNL1        0.0055
     13 C           5.1727    2.1276    0.0000 C.3     1  UNL1        0.0205
     14 C           5.9098    2.7946    0.0000 C.3     1  UNL1        0.1029
     15 C           6.7758    2.2946    0.0000 C.3     1  UNL1        0.1044
     16 C           3.9523    0.4717    0.0000 C.3     1  UNL1        0.0247
     17 C           6.5666    1.3228    0.0000 C.3     1  UNL1        0.0093
     18 C           3.3123   -0.3965    0.0000 C.3     1  UNL1        0.2091
     19 C           7.6418    2.7946    0.0000 C.3     1  UNL1        0.0374
     20 C           4.1446    2.2508    0.0000 C.3     1  UNL1       -0.0444
     21 C           3.5303    1.4173    0.0000 C.3     1  UNL1       -0.0442
     22 C           7.6418    3.7946    0.0000 C.3     1  UNL1        0.1281
     23 C           5.4452   -0.6022    0.0000 C.3     1  UNL1       -0.0410
     24 C           5.9098    3.7946    0.0000 C.3     1  UNL1        0.0080
     25 C           6.7758    4.2946    0.0000 C.3     1  UNL1        0.0897
     26 C           3.7519   -1.3815    0.0000 C.3     1  UNL1        0.1570
     27 C           5.9783    0.2763    0.0000 C.3     1  UNL1       -0.0565
     28 C           4.8255   -1.4850    0.0000 C.3     1  UNL1       -0.0099
     29 C           8.5357    4.3293    0.0000 C.3     1  UNL1        0.1100
     30 C           8.5357    2.2600    0.0000 C.3     1  UNL1        0.0076
     31 C           9.4418    3.8155    0.0000 C.3     1  UNL1        0.0417
     32 C           8.3507    5.3120    0.0000 C.3     1  UNL1       -0.0318
     33 C          10.3730    4.3724    0.0000 C.3     1  UNL1       -0.0343
     34 C          10.3730    2.2169    0.0000 C.3     1  UNL1        0.0019
     35 C          11.3168    2.7522    0.0000 C.3     1  UNL1       -0.0310
     36 C          11.3168    3.8372    0.0000 C.3     1  UNL1       -0.0478
     37 C           3.5790   -3.1049    0.0000 C.2     1  UNL1        0.3350
     38 C          12.1808    2.2488    0.0000 C.3     1  UNL1       -0.0613
     39 C           2.9950   -3.9167    0.0000 C.2     1  UNL1        0.0293
     40 C           2.0000   -3.8168    0.0000 C.3     1  UNL1       -0.0333
     41 C           3.4060   -4.8283    0.0000 C.2     1  UNL1       -0.0774
     42 C           4.4010   -4.9281    0.0000 C.3     1  UNL1       -0.0461
     43 H           4.8263    2.9038    0.0000 H       1  UNL1        0.0358
     44 H           3.1062    0.5533    0.0000 H       1  UNL1        0.0360
     45 H           6.5657    0.7028    0.0000 H       1  UNL1        0.0322
     46 H           7.1830    1.2568    0.0000 H       1  UNL1        0.0322
     47 H           8.3812    3.2140    0.0000 H       1  UNL1        0.0372
     48 H           4.3226    2.8447    0.0000 H       1  UNL1        0.0270
     49 H           3.5900    2.5278    0.0000 H       1  UNL1        0.0270
     50 H           3.1015    1.8651    0.0000 H       1  UNL1        0.0270
     51 H           3.0157    1.0714    0.0000 H       1  UNL1        0.0270
     52 H           5.8842   -1.0400    0.0000 H       1  UNL1        0.0273
     53 H           5.9516   -0.2446    0.0000 H       1  UNL1        0.0273
     54 H           5.6977    4.3773    0.0000 H       1  UNL1        0.0320
     55 H           5.2992    3.6870    0.0000 H       1  UNL1        0.0320
     56 H           7.2142    4.7331    0.0000 H       1  UNL1        0.0624
     57 H           3.1351   -1.3184    0.0000 H       1  UNL1        0.0789
     58 H           5.9188   -0.3409    0.0000 H       1  UNL1        0.0236
     59 H           6.5955    0.2168    0.0000 H       1  UNL1        0.0236
     60 H           6.0378    0.8934    0.0000 H       1  UNL1        0.0236
     61 H           4.6612   -2.0829    0.0000 H       1  UNL1        0.0303
     62 H           5.3864   -1.7492    0.0000 H       1  UNL1        0.0303
     63 H           8.1312    1.7902    0.0000 H       1  UNL1        0.0431
     64 H           8.9294    1.7810    0.0000 H       1  UNL1        0.0431
     65 H           9.4320    4.6654    0.0000 H       1  UNL1        0.0492
     66 H           5.0437    3.9146    0.0000 H       1  UNL1        0.2103
     67 H           7.6418    1.1746    0.0000 H       1  UNL1        0.2103
     68 H           2.0003   -0.9284    0.0000 H       1  UNL1        0.2129
     69 H           7.3318    5.3316    0.0000 H       1  UNL1        0.2104
     70 H           8.9600    5.4268    0.0000 H       1  UNL1        0.0259
     71 H           8.2360    5.9213    0.0000 H       1  UNL1        0.0259
     72 H           7.7414    5.1973    0.0000 H       1  UNL1        0.0259
     73 H          10.7666    4.8514    0.0000 H       1  UNL1        0.0281
     74 H           9.9684    4.8422    0.0000 H       1  UNL1        0.0281
     75 H           9.9684    1.7471    0.0000 H       1  UNL1        0.0429
     76 H          10.7666    1.7379    0.0000 H       1  UNL1        0.0429
     77 H           5.6558    5.1607    0.0000 H       1  UNL1        0.2099
     78 H           9.6457    5.2082    0.0000 H       1  UNL1        0.2103
     79 H          11.3132    2.1322    0.0000 H       1  UNL1        0.0310
     80 H          11.9276    3.7311    0.0000 H       1  UNL1        0.0269
     81 H          11.5258    4.4208    0.0000 H       1  UNL1        0.0269
     82 H          11.8688    1.7131    0.0000 H       1  UNL1        0.0233
     83 H          12.7166    1.9368    0.0000 H       1  UNL1        0.0233
     84 H          12.4929    2.7846    0.0000 H       1  UNL1        0.0233
     85 H           2.0619   -3.1999    0.0000 H       1  UNL1        0.0280
     86 H           1.3831   -3.7549    0.0000 H       1  UNL1        0.0280
     87 H           1.9381   -4.4337    0.0000 H       1  UNL1        0.0280
     88 H           3.0440   -5.3316    0.0000 H       1  UNL1        0.0574
     89 H           4.3392   -5.5450    0.0000 H       1  UNL1        0.0272
     90 H           5.0180   -4.9900    0.0000 H       1  UNL1        0.0272
     91 H           4.4630   -4.3112    0.0000 H       1  UNL1        0.0272
@<TRIPOS>BOND
     1     1    11    1
     2     1    18    1
     3    14     2    1
     4     2    66    1
     5    15     3    1
     6     3    67    1
     7    18     4    1
     8     4    68    1
     9    22     5    1
    10     5    69    1
    11    26     6    1
    12     6    37    1
    13    25     7    1
    14     7    77    1
    15    29     8    1
    16     8    78    1
    17     9    37    2
    18    10    30    1
    19    10    31    1
    20    10    34    1
    21    11    12    1
    22    11    13    1
    23    11    17    1
    24    12    16    1
    25    12    23    1
    26    12    27    1
    27    13    14    1
    28    13    20    1
    29    13    43    1
    30    14    15    1
    31    14    24    1
    32    15    17    1
    33    15    19    1
    34    16    18    1
    35    16    21    1
    36    16    44    1
    37    17    45    1
    38    17    46    1
    39    18    26    1
    40    19    22    1
    41    19    30    1
    42    19    47    1
    43    20    21    1
    44    20    48    1
    45    20    49    1
    46    21    50    1
    47    21    51    1
    48    22    25    1
    49    22    29    1
    50    23    28    1
    51    23    52    1
    52    23    53    1
    53    24    25    1
    54    24    54    1
    55    24    55    1
    56    25    56    1
    57    26    28    1
    58    26    57    1
    59    27    58    1
    60    27    59    1
    61    27    60    1
    62    28    61    1
    63    28    62    1
    64    29    31    1
    65    29    32    1
    66    30    63    1
    67    30    64    1
    68    31    33    1
    69    31    65    1
    70    32    70    1
    71    32    71    1
    72    32    72    1
    73    33    36    1
    74    33    73    1
    75    33    74    1
    76    34    35    1
    77    34    75    1
    78    34    76    1
    79    35    36    1
    80    35    38    1
    81    35    79    1
    82    36    80    1
    83    36    81    1
    84    37    39    1
    85    38    82    1
    86    38    83    1
    87    38    84    1
    88    39    40    1
    89    39    41    2
    90    40    85    1
    91    40    86    1
    92    40    87    1
    93    41    42    1
    94    41    88    1
    95    42    89    1
    96    42    90    1
    97    42    91    1
