@<TRIPOS>MOLECULE
IMPHY017722
 15 15 0 0 0
SMALL
GASTEIGER

@<TRIPOS>ATOM
      1 S           3.7320    1.4400    0.0000 S.3     1  UNL1       -0.1005
      2 O           2.0000    1.4400    0.0000 O.2     1  UNL1       -0.2800
      3 C           2.8660   -0.0600    0.0000 C.ar    1  UNL1        0.0281
      4 C           2.0000   -0.5600    0.0000 C.ar    1  UNL1       -0.0504
      5 C           3.7320   -0.5600    0.0000 C.ar    1  UNL1       -0.0504
      6 C           2.0000   -1.5600    0.0000 C.ar    1  UNL1       -0.0611
      7 C           3.7320   -1.5600    0.0000 C.ar    1  UNL1       -0.0611
      8 C           2.8660   -2.0600    0.0000 C.ar    1  UNL1       -0.0617
      9 C           2.8660    0.9400    0.0000 C.2     1  UNL1        0.2166
     10 H           1.4631   -0.2500    0.0000 H       1  UNL1        0.0625
     11 H           4.2690   -0.2500    0.0000 H       1  UNL1        0.0625
     12 H           1.4631   -1.8700    0.0000 H       1  UNL1        0.0618
     13 H           4.2690   -1.8700    0.0000 H       1  UNL1        0.0618
     14 H           2.8660   -2.6800    0.0000 H       1  UNL1        0.0618
     15 H           3.7320    2.0600    0.0000 H       1  UNL1        0.1102
@<TRIPOS>BOND
     1     1     9    1
     2     1    15    1
     3     2     9    2
     4     3     4   ar
     5     3     5   ar
     6     3     9    1
     7     4     6   ar
     8     4    10    1
     9     5     7   ar
    10     5    11    1
    11     6     8   ar
    12     6    12    1
    13     7     8   ar
    14     7    13    1
    15     8    14    1
