@<TRIPOS>MOLECULE
IMPHY007246
 110 121 0 0 0
SMALL
GASTEIGER

@<TRIPOS>ATOM
      1 O           6.8182   -4.0499    0.0000 O.3     1  UNL1       -0.4829
      2 O           9.6352    2.7326    0.0000 O.3     1  UNL1       -0.4829
      3 O           7.0116    1.2971    0.0000 O.3     1  UNL1       -0.5063
      4 O          12.2844   -1.7303    0.0000 O.3     1  UNL1       -0.5063
      5 O          10.4197   -4.6078    0.0000 O.3     1  UNL1       -0.5066
      6 O           6.5177    0.8450    0.0000 O.3     1  UNL1       -0.5066
      7 O           4.3574   -0.2087    0.0000 O.3     1  UNL1       -0.5066
      8 O          13.9893    1.3719    0.0000 O.3     1  UNL1       -0.5066
      9 O          10.1261    2.9257    0.0000 O.3     1  UNL1       -0.5068
     10 O          11.5851   -4.7373    0.0000 O.3     1  UNL1       -0.5068
     11 O           2.3649   -2.7609    0.0000 O.3     1  UNL1       -0.5068
     12 O          13.8752    4.6077    0.0000 O.3     1  UNL1       -0.5068
     13 C           9.0140   -1.4600    0.0000 C.3     1  UNL1        0.0033
     14 C           9.6179   -0.6629    0.0000 C.3     1  UNL1        0.0033
     15 C           8.3906   -0.6782    0.0000 C.3     1  UNL1        0.0203
     16 C          10.5980   -0.8610    0.0000 C.3     1  UNL1        0.0203
     17 C           8.7915   -2.4349    0.0000 C.ar    1  UNL1       -0.0320
     18 C           9.1616    0.2270    0.0000 C.ar    1  UNL1       -0.0320
     19 C           6.9896   -2.4349    0.0000 C.3     1  UNL1        0.0546
     20 C          10.5420    1.3853    0.0000 C.3     1  UNL1        0.0546
     21 C           7.8906   -2.8688    0.0000 C.ar    1  UNL1        0.0093
     22 C           9.5729    1.1385    0.0000 C.ar    1  UNL1        0.0093
     23 C           7.3906   -0.6782    0.0000 C.ar    1  UNL1        0.0061
     24 C          11.3641   -0.2182    0.0000 C.ar    1  UNL1        0.0061
     25 C           6.7671   -1.4600    0.0000 C.ar    1  UNL1       -0.0253
     26 C          11.3391    0.7815    0.0000 C.ar    1  UNL1       -0.0253
     27 C          10.5569    2.3741    0.0000 C.3     1  UNL1        0.1360
     28 C           6.3426   -3.1829    0.0000 C.3     1  UNL1        0.1360
     29 C           8.8244    0.2228    0.0000 C.ar    1  UNL1       -0.0390
     30 C          10.8448   -1.8301    0.0000 C.ar    1  UNL1       -0.0390
     31 C           7.7967   -3.9062    0.0000 C.ar    1  UNL1        0.1290
     32 C           8.9780    1.9935    0.0000 C.ar    1  UNL1        0.1290
     33 C           9.6611   -3.0083    0.0000 C.ar    1  UNL1       -0.0162
     34 C           8.1269    0.1073    0.0000 C.ar    1  UNL1       -0.0162
     35 C           7.0250    0.2972    0.0000 C.ar    1  UNL1        0.1244
     36 C          12.2711   -0.7304    0.0000 C.ar    1  UNL1        0.1244
     37 C           5.7348   -1.3206    0.0000 C.ar    1  UNL1       -0.0158
     38 C          12.2195    1.3383    0.0000 C.ar    1  UNL1       -0.0158
     39 C           8.6528   -4.4996    0.0000 C.ar    1  UNL1        0.0219
     40 C           7.9408    1.8978    0.0000 C.ar    1  UNL1        0.0219
     41 C          11.3864    2.9325    0.0000 C.ar    1  UNL1       -0.0062
     42 C           5.3482   -3.0774    0.0000 C.ar    1  UNL1       -0.0062
     43 C           9.5913   -4.0476    0.0000 C.ar    1  UNL1        0.1206
     44 C           7.5124    0.9484    0.0000 C.ar    1  UNL1        0.1206
     45 C           9.8216    0.2975    0.0000 C.ar    1  UNL1       -0.0545
     46 C          10.1289   -2.5283    0.0000 C.ar    1  UNL1       -0.0545
     47 C           8.2611    1.0491    0.0000 C.ar    1  UNL1       -0.0545
     48 C          11.8074   -2.1009    0.0000 C.ar    1  UNL1       -0.0545
     49 C           5.9962    0.4604    0.0000 C.ar    1  UNL1        0.0216
     50 C          13.1640   -0.1941    0.0000 C.ar    1  UNL1        0.0216
     51 C           5.3468   -0.3540    0.0000 C.ar    1  UNL1        0.1206
     52 C          13.1381    0.8472    0.0000 C.ar    1  UNL1        0.1206
     53 C           4.9423   -2.1634    0.0000 C.ar    1  UNL1       -0.0516
     54 C          12.2848    2.4933    0.0000 C.ar    1  UNL1       -0.0516
     55 C           4.7596   -3.8858    0.0000 C.ar    1  UNL1       -0.0516
     56 C          11.3177    3.9302    0.0000 C.ar    1  UNL1       -0.0516
     57 C          10.2555    1.1985    0.0000 C.ar    1  UNL1       -0.0199
     58 C          10.3758   -3.4973    0.0000 C.ar    1  UNL1       -0.0199
     59 C           8.6950    1.9500    0.0000 C.ar    1  UNL1       -0.0199
     60 C          12.0542   -3.0700    0.0000 C.ar    1  UNL1       -0.0199
     61 C           9.6922    2.0248    0.0000 C.ar    1  UNL1        0.1169
     62 C          11.3383   -3.7682    0.0000 C.ar    1  UNL1        0.1169
     63 C           3.9479   -2.0579    0.0000 C.ar    1  UNL1       -0.0198
     64 C          13.1144    3.0517    0.0000 C.ar    1  UNL1       -0.0198
     65 C           3.7652   -3.7803    0.0000 C.ar    1  UNL1       -0.0198
     66 C          12.1472    4.4885    0.0000 C.ar    1  UNL1       -0.0198
     67 C          13.0456    4.0493    0.0000 C.ar    1  UNL1        0.1169
     68 C           3.3593   -2.8664    0.0000 C.ar    1  UNL1        0.1169
     69 H           9.0035   -0.6100    0.0000 H       1  UNL1        0.0364
     70 H           9.9185   -1.4579    0.0000 H       1  UNL1        0.0364
     71 H           9.0067   -0.6087    0.0000 H       1  UNL1        0.0405
     72 H          11.1882   -1.0511    0.0000 H       1  UNL1        0.0405
     73 H          11.3060    1.7579    0.0000 H       1  UNL1        0.0438
     74 H           7.6542   -1.9049    0.0000 H       1  UNL1        0.0438
     75 H           5.9990   -3.6990    0.0000 H       1  UNL1        0.0794
     76 H          10.4883    2.9903    0.0000 H       1  UNL1        0.0794
     77 H          10.2166   -2.7329    0.0000 H       1  UNL1        0.0657
     78 H           7.8785   -0.4607    0.0000 H       1  UNL1        0.0657
     79 H           5.3539   -1.8098    0.0000 H       1  UNL1        0.0657
     80 H          12.1969    1.9578    0.0000 H       1  UNL1        0.0657
     81 H           8.6041   -5.1177    0.0000 H       1  UNL1        0.0691
     82 H           7.5808    2.4026    0.0000 H       1  UNL1        0.0691
     83 H          10.1709   -0.2147    0.0000 H       1  UNL1        0.0622
     84 H           9.5321   -2.3604    0.0000 H       1  UNL1        0.0622
     85 H           7.6429    1.0027    0.0000 H       1  UNL1        0.0622
     86 H          12.2512   -1.6680    0.0000 H       1  UNL1        0.0622
     87 H           5.7720    1.0384    0.0000 H       1  UNL1        0.0691
     88 H          13.7074   -0.4928    0.0000 H       1  UNL1        0.0691
     89 H           5.3072   -1.6622    0.0000 H       1  UNL1        0.0623
     90 H          12.3275    1.8747    0.0000 H       1  UNL1        0.0623
     91 H           5.0112   -4.4525    0.0000 H       1  UNL1        0.0623
     92 H          10.7607    4.2025    0.0000 H       1  UNL1        0.0623
     93 H          10.8738    1.2448    0.0000 H       1  UNL1        0.0654
     94 H           9.9319   -3.9302    0.0000 H       1  UNL1        0.0654
     95 H           8.3458    2.4623    0.0000 H       1  UNL1        0.0654
     96 H          12.6510   -3.2379    0.0000 H       1  UNL1        0.0654
     97 H          12.8255   -2.0331    0.0000 H       1  UNL1        0.2921
     98 H           6.6945    1.8299    0.0000 H       1  UNL1        0.2921
     99 H          10.3757   -5.2262    0.0000 H       1  UNL1        0.2921
    100 H           5.9516    1.0978    0.0000 H       1  UNL1        0.2921
    101 H          13.6714    2.7793    0.0000 H       1  UNL1        0.0654
    102 H           3.6963   -1.4913    0.0000 H       1  UNL1        0.0654
    103 H          12.1046    5.1071    0.0000 H       1  UNL1        0.0654
    104 H           3.4003   -4.2816    0.0000 H       1  UNL1        0.0654
    105 H           4.1287    0.3675    0.0000 H       1  UNL1        0.2921
    106 H          14.5350    1.0775    0.0000 H       1  UNL1        0.2921
    107 H           9.7768    3.4380    0.0000 H       1  UNL1        0.2921
    108 H          12.1819   -4.9052    0.0000 H       1  UNL1        0.2921
    109 H           2.0000   -3.2621    0.0000 H       1  UNL1        0.2921
    110 H          13.8326    5.2262    0.0000 H       1  UNL1        0.2921
@<TRIPOS>BOND
     1     1    28    1
     2     1    31    1
     3     2    27    1
     4     2    32    1
     5     3    35    1
     6     3    98    1
     7     4    36    1
     8     4    97    1
     9     5    43    1
    10     5    99    1
    11     6    44    1
    12     6   100    1
    13     7    51    1
    14     7   105    1
    15     8    52    1
    16     8   106    1
    17     9    61    1
    18     9   107    1
    19    10    62    1
    20    10   108    1
    21    11    68    1
    22    11   109    1
    23    12    67    1
    24    12   110    1
    25    13    14    1
    26    13    15    1
    27    13    17    1
    28    13    69    1
    29    14    16    1
    30    14    18    1
    31    14    70    1
    32    15    23    1
    33    15    29    1
    34    15    71    1
    35    16    24    1
    36    16    30    1
    37    16    72    1
    38    17    21   ar
    39    17    33   ar
    40    18    22   ar
    41    18    34   ar
    42    19    21    1
    43    19    25    1
    44    19    28    1
    45    19    74    1
    46    20    22    1
    47    20    26    1
    48    20    27    1
    49    20    73    1
    50    21    31   ar
    51    22    32   ar
    52    23    25   ar
    53    23    35   ar
    54    24    26   ar
    55    24    36   ar
    56    25    37   ar
    57    26    38   ar
    58    27    41    1
    59    27    76    1
    60    28    42    1
    61    28    75    1
    62    29    45   ar
    63    29    47   ar
    64    30    46   ar
    65    30    48   ar
    66    31    39   ar
    67    32    40   ar
    68    33    43   ar
    69    33    77    1
    70    34    44   ar
    71    34    78    1
    72    35    49   ar
    73    36    50   ar
    74    37    51   ar
    75    37    79    1
    76    38    52   ar
    77    38    80    1
    78    39    43   ar
    79    39    81    1
    80    40    44   ar
    81    40    82    1
    82    41    54   ar
    83    41    56   ar
    84    42    53   ar
    85    42    55   ar
    86    45    57   ar
    87    45    83    1
    88    46    58   ar
    89    46    84    1
    90    47    59   ar
    91    47    85    1
    92    48    60   ar
    93    48    86    1
    94    49    51   ar
    95    49    87    1
    96    50    52   ar
    97    50    88    1
    98    53    63   ar
    99    53    89    1
   100    54    64   ar
   101    54    90    1
   102    55    65   ar
   103    55    91    1
   104    56    66   ar
   105    56    92    1
   106    57    61   ar
   107    57    93    1
   108    58    62   ar
   109    58    94    1
   110    59    61   ar
   111    59    95    1
   112    60    62   ar
   113    60    96    1
   114    63    68   ar
   115    63   102    1
   116    64    67   ar
   117    64   101    1
   118    65    68   ar
   119    65   104    1
   120    66    67   ar
   121    66   103    1
