@<TRIPOS>MOLECULE
IMPHY004609
 49 50 0 0 0
SMALL
GASTEIGER

@<TRIPOS>ATOM
      1 O           4.2690   -1.3450    0.0000 O.3     1  UNL1       -0.3312
      2 O           2.5369   -3.3450    0.0000 O.3     1  UNL1       -0.3865
      3 O           4.2690   -4.3450    0.0000 O.3     1  UNL1       -0.3864
      4 O           6.0010   -3.3450    0.0000 O.3     1  UNL1       -0.3829
      5 O           6.0010   -1.3450    0.0000 O.3     1  UNL1       -0.4292
      6 O           2.5369   -0.3450    0.0000 O.3     1  UNL1       -0.3924
      7 O           5.1350    0.1550    0.0000 O.2     1  UNL1       -0.2455
      8 O           8.5991    4.1550    0.0000 O.3     1  UNL1       -0.4913
      9 O          10.3312    1.1550    0.0000 O.3     1  UNL1       -0.4913
     10 O          10.3312    3.1550    0.0000 O.3     1  UNL1       -0.5009
     11 C           3.4030   -2.8450    0.0000 C.3     1  UNL1        0.1120
     12 C           4.2690   -3.3450    0.0000 C.3     1  UNL1        0.1152
     13 C           3.4030   -1.8450    0.0000 C.3     1  UNL1        0.1140
     14 C           5.1350   -2.8450    0.0000 C.3     1  UNL1        0.1455
     15 C           5.1350   -1.8450    0.0000 C.3     1  UNL1        0.2340
     16 C           2.5369   -1.3450    0.0000 C.3     1  UNL1        0.0731
     17 C           6.0010   -0.3450    0.0000 C.2     1  UNL1        0.3342
     18 C           6.8671    0.1550    0.0000 C.2     1  UNL1        0.0231
     19 C           6.8671    1.1550    0.0000 C.2     1  UNL1       -0.0476
     20 C           7.7331    1.6550    0.0000 C.ar    1  UNL1       -0.0177
     21 C           8.5991    1.1550    0.0000 C.ar    1  UNL1       -0.0089
     22 C           7.7331    2.6550    0.0000 C.ar    1  UNL1       -0.0089
     23 C           8.5991    3.1550    0.0000 C.ar    1  UNL1        0.1655
     24 C           9.4651    1.6550    0.0000 C.ar    1  UNL1        0.1655
     25 C           9.4651    2.6550    0.0000 C.ar    1  UNL1        0.2010
     26 C           7.7331    4.6550    0.0000 C.3     1  UNL1        0.0790
     27 C          10.3312    0.1550    0.0000 C.3     1  UNL1        0.0790
     28 H           3.4030   -3.4650    0.0000 H       1  UNL1        0.0647
     29 H           4.8059   -3.6550    0.0000 H       1  UNL1        0.0648
     30 H           3.4030   -1.2250    0.0000 H       1  UNL1        0.0647
     31 H           5.6720   -2.5350    0.0000 H       1  UNL1        0.0683
     32 H           5.1350   -1.2250    0.0000 H       1  UNL1        0.1085
     33 H           1.9264   -1.2373    0.0000 H       1  UNL1        0.0584
     34 H           2.3249   -1.9276    0.0000 H       1  UNL1        0.0584
     35 H           2.0000   -3.0350    0.0000 H       1  UNL1        0.2100
     36 H           3.7320   -4.6550    0.0000 H       1  UNL1        0.2100
     37 H           6.5380   -3.0350    0.0000 H       1  UNL1        0.2102
     38 H           2.0000   -0.0350    0.0000 H       1  UNL1        0.2095
     39 H           7.4040   -0.1550    0.0000 H       1  UNL1        0.0689
     40 H           6.3301    1.4650    0.0000 H       1  UNL1        0.0626
     41 H           8.5991    0.5350    0.0000 H       1  UNL1        0.0661
     42 H           7.1962    2.9650    0.0000 H       1  UNL1        0.0661
     43 H          10.3312    3.7750    0.0000 H       1  UNL1        0.2924
     44 H           8.0431    5.1919    0.0000 H       1  UNL1        0.0660
     45 H           7.1962    4.9650    0.0000 H       1  UNL1        0.0660
     46 H           7.4231    4.1181    0.0000 H       1  UNL1        0.0660
     47 H           9.7112    0.1550    0.0000 H       1  UNL1        0.0660
     48 H          10.3312   -0.4650    0.0000 H       1  UNL1        0.0660
     49 H          10.9512    0.1550    0.0000 H       1  UNL1        0.0660
@<TRIPOS>BOND
     1     1    13    1
     2     1    15    1
     3    11     2    1
     4     2    35    1
     5    12     3    1
     6     3    36    1
     7    14     4    1
     8     4    37    1
     9    15     5    1
    10     5    17    1
    11     6    16    1
    12     6    38    1
    13     7    17    2
    14     8    23    1
    15     8    26    1
    16     9    24    1
    17     9    27    1
    18    10    25    1
    19    10    43    1
    20    11    12    1
    21    11    13    1
    22    11    28    1
    23    12    14    1
    24    12    29    1
    25    13    16    1
    26    13    30    1
    27    14    15    1
    28    14    31    1
    29    15    32    1
    30    16    33    1
    31    16    34    1
    32    17    18    1
    33    18    19    2
    34    18    39    1
    35    19    20    1
    36    19    40    1
    37    20    21   ar
    38    20    22   ar
    39    21    24   ar
    40    21    41    1
    41    22    23   ar
    42    22    42    1
    43    23    25   ar
    44    24    25   ar
    45    26    44    1
    46    26    45    1
    47    26    46    1
    48    27    47    1
    49    27    48    1
    50    27    49    1
