@<TRIPOS>MOLECULE
IMPHY001152
 71 76 0 0 0
SMALL
GASTEIGER

@<TRIPOS>ATOM
      1 O           6.3981   -1.8529    0.0000 O.3     1  UNL1       -0.4825
      2 O           8.2076    2.1189    0.0000 O.3     1  UNL1       -0.4825
      3 O           6.3981    1.1471    0.0000 O.2     1  UNL1       -0.2913
      4 O           9.2337   -0.7002    0.0000 O.2     1  UNL1       -0.2913
      5 O           4.6497    1.1817    0.0000 O.3     1  UNL1       -0.5058
      6 O          10.8885   -0.1347    0.0000 O.3     1  UNL1       -0.5058
      7 O           2.8680   -1.8770    0.0000 O.3     1  UNL1       -0.4949
      8 O          11.5166    3.3490    0.0000 O.3     1  UNL1       -0.5065
      9 O          10.7282   -3.3529    0.0000 O.3     1  UNL1       -0.4951
     10 O           4.1008    3.3529    0.0000 O.3     1  UNL1       -0.4951
     11 C           7.2641   -0.3529    0.0000 C.3     1  UNL1        0.0770
     12 C           7.9069    0.4132    0.0000 C.3     1  UNL1        0.0770
     13 C           7.2641   -1.3529    0.0000 C.3     1  UNL1        0.1358
     14 C           7.5649    1.3529    0.0000 C.3     1  UNL1        0.1358
     15 C           6.3981    0.1471    0.0000 C.2     1  UNL1        0.1779
     16 C           8.8917    0.2395    0.0000 C.2     1  UNL1        0.1779
     17 C           8.1301   -1.8529    0.0000 C.ar    1  UNL1       -0.0064
     18 C           6.6988    1.8529    0.0000 C.ar    1  UNL1       -0.0064
     19 C           5.5320   -0.3529    0.0000 C.ar    1  UNL1        0.1010
     20 C           9.5345    1.0056    0.0000 C.ar    1  UNL1        0.1010
     21 C           5.5320   -1.3529    0.0000 C.ar    1  UNL1        0.1389
     22 C           9.1925    1.9453    0.0000 C.ar    1  UNL1        0.1389
     23 C           4.6381    0.1818    0.0000 C.ar    1  UNL1        0.1343
     24 C          10.5574    0.8089    0.0000 C.ar    1  UNL1        0.1343
     25 C           8.1301   -2.8529    0.0000 C.ar    1  UNL1       -0.0516
     26 C           8.9962   -1.3529    0.0000 C.ar    1  UNL1       -0.0516
     27 C           6.6988    2.8529    0.0000 C.ar    1  UNL1       -0.0516
     28 C           5.8328    1.3530    0.0000 C.ar    1  UNL1       -0.0516
     29 C           4.6381   -1.8875    0.0000 C.ar    1  UNL1        0.0227
     30 C           9.8496    2.7534    0.0000 C.ar    1  UNL1        0.0225
     31 C           3.7320   -0.3321    0.0000 C.ar    1  UNL1        0.0225
     32 C           3.7320   -1.3737    0.0000 C.ar    1  UNL1        0.1271
     33 C          11.2331    1.6016    0.0000 C.ar    1  UNL1        0.0222
     34 C          10.8768    2.5805    0.0000 C.ar    1  UNL1        0.1238
     35 C           8.9962   -3.3529    0.0000 C.ar    1  UNL1       -0.0196
     36 C           9.8622   -1.8529    0.0000 C.ar    1  UNL1       -0.0196
     37 C           5.8328    3.3529    0.0000 C.ar    1  UNL1       -0.0196
     38 C           4.9668    1.8529    0.0000 C.ar    1  UNL1       -0.0196
     39 C           9.8622   -2.8529    0.0000 C.ar    1  UNL1        0.1201
     40 C           4.9668    2.8529    0.0000 C.ar    1  UNL1        0.1201
     41 C           2.0000   -1.3804    0.0000 C.3     1  UNL1        0.0788
     42 C          10.7282   -4.3529    0.0000 C.3     1  UNL1        0.0788
     43 C           4.1008    4.3529    0.0000 C.3     1  UNL1        0.0788
     44 H           7.1165    0.4842    0.0000 H       1  UNL1        0.0429
     45 H           8.1976   -0.3856    0.0000 H       1  UNL1        0.0429
     46 H           7.2641   -1.9729    0.0000 H       1  UNL1        0.0792
     47 H           7.0899    0.9543    0.0000 H       1  UNL1        0.0792
     48 H           7.5932   -3.1629    0.0000 H       1  UNL1        0.0623
     49 H           8.9962   -0.7329    0.0000 H       1  UNL1        0.0623
     50 H           7.2358    3.1629    0.0000 H       1  UNL1        0.0623
     51 H           5.8328    0.7330    0.0000 H       1  UNL1        0.0623
     52 H           4.6453   -2.5075    0.0000 H       1  UNL1        0.0691
     53 H           9.6308    3.3336    0.0000 H       1  UNL1        0.0691
     54 H           3.1963   -0.0200    0.0000 H       1  UNL1        0.0691
     55 H          11.8432    1.4916    0.0000 H       1  UNL1        0.0691
     56 H           8.9962   -3.9729    0.0000 H       1  UNL1        0.0654
     57 H          10.3991   -1.5429    0.0000 H       1  UNL1        0.0654
     58 H           5.8328    3.9729    0.0000 H       1  UNL1        0.0654
     59 H           4.4299    1.5428    0.0000 H       1  UNL1        0.0654
     60 H           4.1164    1.4979    0.0000 H       1  UNL1        0.2922
     61 H          11.4978   -0.2494    0.0000 H       1  UNL1        0.2922
     62 H          12.1276    3.2437    0.0000 H       1  UNL1        0.2921
     63 H           2.3079   -0.8422    0.0000 H       1  UNL1        0.0660
     64 H           1.4619   -1.0724    0.0000 H       1  UNL1        0.0660
     65 H           1.6921   -1.9185    0.0000 H       1  UNL1        0.0660
     66 H          10.1082   -4.3529    0.0000 H       1  UNL1        0.0660
     67 H          10.7282   -4.9729    0.0000 H       1  UNL1        0.0660
     68 H          11.3482   -4.3529    0.0000 H       1  UNL1        0.0660
     69 H           4.7208    4.3529    0.0000 H       1  UNL1        0.0660
     70 H           4.1008    4.9729    0.0000 H       1  UNL1        0.0660
     71 H           3.4808    4.3529    0.0000 H       1  UNL1        0.0660
@<TRIPOS>BOND
     1     1    13    1
     2     1    21    1
     3     2    14    1
     4     2    22    1
     5     3    15    2
     6     4    16    2
     7     5    23    1
     8     5    60    1
     9     6    24    1
    10     6    61    1
    11     7    32    1
    12     7    41    1
    13     8    34    1
    14     8    62    1
    15     9    39    1
    16     9    42    1
    17    10    40    1
    18    10    43    1
    19    11    12    1
    20    11    13    1
    21    11    15    1
    22    11    44    1
    23    12    14    1
    24    12    16    1
    25    12    45    1
    26    13    17    1
    27    13    46    1
    28    14    18    1
    29    14    47    1
    30    15    19    1
    31    16    20    1
    32    17    25   ar
    33    17    26   ar
    34    18    27   ar
    35    18    28   ar
    36    19    21   ar
    37    19    23   ar
    38    20    22   ar
    39    20    24   ar
    40    21    29   ar
    41    22    30   ar
    42    23    31   ar
    43    24    33   ar
    44    25    35   ar
    45    25    48    1
    46    26    36   ar
    47    26    49    1
    48    27    37   ar
    49    27    50    1
    50    28    38   ar
    51    28    51    1
    52    29    32   ar
    53    29    52    1
    54    30    34   ar
    55    30    53    1
    56    31    32   ar
    57    31    54    1
    58    33    34   ar
    59    33    55    1
    60    35    39   ar
    61    35    56    1
    62    36    39   ar
    63    36    57    1
    64    37    40   ar
    65    37    58    1
    66    38    40   ar
    67    38    59    1
    68    41    63    1
    69    41    64    1
    70    41    65    1
    71    42    66    1
    72    42    67    1
    73    42    68    1
    74    43    69    1
    75    43    70    1
    76    43    71    1
