@<TRIPOS>MOLECULE
IMPHY010721
 29 33 0 0 0
SMALL
GASTEIGER

@<TRIPOS>ATOM
      1 N           7.9274   -1.3403    0.0000 N.3     1  UNL1       -0.2731
      2 C           8.9976   -2.0156    0.0000 C.3     1  UNL1        0.0539
      3 C           8.9976   -3.3247    0.0000 C.3     1  UNL1       -0.0045
      4 C           6.7845   -3.3247    0.0000 C.3     1  UNL1        0.0114
      5 C           6.7845   -4.6546    0.0000 C.3     1  UNL1       -0.0215
      6 C           5.6209   -5.2365    0.0000 C.3     1  UNL1       -0.0226
      7 C           4.4884   -4.6546    0.0000 C.3     1  UNL1        0.0123
      8 C           4.4884   -3.3455    0.0000 C.3     1  UNL1        0.1486
      9 C           5.6209   -2.6702    0.0000 C.3     1  UNL1        0.0334
     10 C           6.7845   -2.0156    0.0000 C.3     1  UNL1        0.0715
     11 C           8.9976   -4.6546    0.0000 C.3     1  UNL1       -0.0029
     12 C           7.9274   -5.2365    0.0000 C.3     1  UNL1       -0.0045
     13 C           5.6209   -6.5664    0.0000 C.3     1  UNL1       -0.0001
     14 C           4.4884   -7.2417    0.0000 C.3     1  UNL1        0.0221
     15 C           3.4182   -6.5664    0.0000 C.2     1  UNL1       -0.0381
     16 C           2.2650   -7.2417    0.0000 C.2     1  UNL1        0.0338
     17 C           1.1221   -6.5664    0.0000 C.2     1  UNL1        0.1948
     18 C           1.1221   -5.2365    0.0000 C.2     1  UNL1        0.0377
     19 C           2.2650   -4.6546    0.0000 C.2     1  UNL1       -0.0200
     20 C           3.4182   -5.2365    0.0000 C.3     1  UNL1        0.0325
     21 C           7.9378    0.0000    0.0000 C.3     1  UNL1        0.0896
     22 C          10.1508   -1.3403    0.0000 C.3     1  UNL1        0.0170
     23 O           3.3351   -2.6806    0.0000 O.3     1  UNL1       -0.2235
     24 O           0.0000   -7.2417    0.0000 O.2     1  UNL1       -0.2866
     25 C           3.4182   -3.9793    0.0000 C.3     1  UNL1        0.0082
     26 H           6.7845   -5.9118    0.0000 H       1  UNL1        0.0316
     27 H           4.4884   -5.9118    0.0000 H       1  UNL1        0.0346
     28 H           5.6209   -3.9793    0.0000 H       1  UNL1        0.0314
     29 H          10.3898   -3.3247    0.0000 H       1  UNL1        0.0332
@<TRIPOS>BOND
     1     1    10    1
     2     1     2    1
     3     1    21    1
     4     2     3    1
     5     2    22    1
     6     3     4    1
     7     3    11    1
     8     3    29    1
     9     4     9    1
    10     4     5    1
    11     4    10    1
    12     5     6    1
    13     5    12    1
    14     5    26    1
    15     6    13    1
    16     6     7    1
    17     6    28    1
    18     7    20    1
    19     7     8    1
    20     7    27    1
    21     8     9    1
    22     8    23    1
    23    11    12    1
    24    13    14    1
    25    14    15    1
    26    15    20    1
    27    15    16    2
    28    16    17    1
    29    17    18    1
    30    17    24    2
    31    18    19    2
    32    19    20    1
    33    20    25    1
