@<TRIPOS>MOLECULE
IMPHY001303
 38 39 0 0 0
SMALL
GASTEIGER

@<TRIPOS>ATOM
      1 O           2.8660    0.2500    0.0000 O.3     1  UNL1       -0.4947
      2 O           4.5981   -2.7500    0.0000 O.3     1  UNL1       -0.4913
      3 O           6.3301   -1.7500    0.0000 O.3     1  UNL1       -0.5033
      4 C           4.5981    1.2500    0.0000 C.3     1  UNL1        0.0306
      5 C           4.5981    0.2500    0.0000 C.ar    1  UNL1        0.0091
      6 C           5.4641    1.7500    0.0000 C.ar    1  UNL1       -0.0361
      7 C           3.7320   -0.2500    0.0000 C.ar    1  UNL1        0.1278
      8 C           5.4641   -0.2500    0.0000 C.ar    1  UNL1       -0.0090
      9 C           3.7320    1.7500    0.0000 C.2     1  UNL1       -0.0793
     10 C           3.7320   -1.2500    0.0000 C.ar    1  UNL1        0.0257
     11 C           5.4641   -1.2500    0.0000 C.ar    1  UNL1        0.1590
     12 C           6.3301    1.2500    0.0000 C.ar    1  UNL1       -0.0577
     13 C           5.4641    2.7500    0.0000 C.ar    1  UNL1       -0.0577
     14 C           4.5981   -1.7500    0.0000 C.ar    1  UNL1        0.1647
     15 C           7.1962    1.7500    0.0000 C.ar    1  UNL1       -0.0615
     16 C           6.3301    3.2500    0.0000 C.ar    1  UNL1       -0.0615
     17 C           7.1962    2.7500    0.0000 C.ar    1  UNL1       -0.0617
     18 C           3.7320    2.7500    0.0000 C.2     1  UNL1       -0.1017
     19 C           2.0000   -0.2500    0.0000 C.3     1  UNL1        0.0788
     20 C           3.7320   -3.2500    0.0000 C.3     1  UNL1        0.0790
     21 H           4.5981    1.8700    0.0000 H       1  UNL1        0.0441
     22 H           6.0010    0.0600    0.0000 H       1  UNL1        0.0659
     23 H           3.1951    1.4400    0.0000 H       1  UNL1        0.0576
     24 H           3.1951   -1.5600    0.0000 H       1  UNL1        0.0692
     25 H           6.3301    0.6300    0.0000 H       1  UNL1        0.0621
     26 H           4.9272    3.0600    0.0000 H       1  UNL1        0.0621
     27 H           7.7331    1.4400    0.0000 H       1  UNL1        0.0618
     28 H           6.3301    3.8700    0.0000 H       1  UNL1        0.0618
     29 H           7.7331    3.0600    0.0000 H       1  UNL1        0.0618
     30 H           4.2690    3.0600    0.0000 H       1  UNL1        0.0532
     31 H           3.1951    3.0600    0.0000 H       1  UNL1        0.0532
     32 H           1.6900    0.2869    0.0000 H       1  UNL1        0.0660
     33 H           1.4631   -0.5600    0.0000 H       1  UNL1        0.0660
     34 H           2.3100   -0.7869    0.0000 H       1  UNL1        0.0660
     35 H           6.3301   -2.3700    0.0000 H       1  UNL1        0.2923
     36 H           3.4220   -2.7131    0.0000 H       1  UNL1        0.0660
     37 H           3.1951   -3.5600    0.0000 H       1  UNL1        0.0660
     38 H           4.0420   -3.7869    0.0000 H       1  UNL1        0.0660
@<TRIPOS>BOND
     1     1     7    1
     2     1    19    1
     3     2    14    1
     4     2    20    1
     5     3    11    1
     6     3    35    1
     7     4     5    1
     8     4     6    1
     9     4     9    1
    10     4    21    1
    11     5     7   ar
    12     5     8   ar
    13     6    12   ar
    14     6    13   ar
    15     7    10   ar
    16     8    11   ar
    17     8    22    1
    18     9    18    2
    19     9    23    1
    20    10    14   ar
    21    10    24    1
    22    11    14   ar
    23    12    15   ar
    24    12    25    1
    25    13    16   ar
    26    13    26    1
    27    15    17   ar
    28    15    27    1
    29    16    17   ar
    30    16    28    1
    31    17    29    1
    32    18    30    1
    33    18    31    1
    34    19    32    1
    35    19    33    1
    36    19    34    1
    37    20    36    1
    38    20    37    1
    39    20    38    1
