@<TRIPOS>MOLECULE
IMPHY002585
 46 48 0 0 0
SMALL
GASTEIGER

@<TRIPOS>ATOM
      1 O           7.2622    2.6671    0.0000 O.3     1  UNL1       -0.4914
      2 O           7.2622    0.6188    0.0000 O.3     1  UNL1       -0.5033
      3 O           2.0000   -2.3571    0.0000 O.3     1  UNL1       -0.4914
      4 O           3.7320   -3.3571    0.0000 O.3     1  UNL1       -0.5033
      5 C           3.7320    0.6429    0.0000 C.3     1  UNL1        0.0163
      6 C           2.8660    1.1429    0.0000 C.3     1  UNL1       -0.0118
      7 C           4.5981    1.1429    0.0000 C.ar    1  UNL1       -0.0286
      8 C           2.8660    2.1429    0.0000 C.2     1  UNL1       -0.0683
      9 C           3.7320   -0.3571    0.0000 C.ar    1  UNL1       -0.0357
     10 C           4.5981    2.1429    0.0000 C.ar    1  UNL1       -0.0176
     11 C           2.0000    0.6429    0.0000 C.3     1  UNL1       -0.0578
     12 C           3.7320    2.6429    0.0000 C.2     1  UNL1       -0.0549
     13 C           5.4920    0.6083    0.0000 C.ar    1  UNL1       -0.0122
     14 C           2.0000    2.6429    0.0000 C.3     1  UNL1       -0.0432
     15 C           5.4920    2.6776    0.0000 C.ar    1  UNL1       -0.0089
     16 C           2.8660   -0.8571    0.0000 C.ar    1  UNL1       -0.0125
     17 C           4.5981   -0.8571    0.0000 C.ar    1  UNL1       -0.0543
     18 C           6.3981    1.1221    0.0000 C.ar    1  UNL1        0.1588
     19 C           6.3981    2.1637    0.0000 C.ar    1  UNL1        0.1618
     20 C           2.8660   -1.8571    0.0000 C.ar    1  UNL1        0.1615
     21 C           4.5981   -1.8571    0.0000 C.ar    1  UNL1       -0.0162
     22 C           3.7320   -2.3571    0.0000 C.ar    1  UNL1        0.1585
     23 C           7.2583    3.6671    0.0000 C.3     1  UNL1        0.0790
     24 C           2.0000   -3.3571    0.0000 C.3     1  UNL1        0.0790
     25 H           3.1951    0.3329    0.0000 H       1  UNL1        0.0403
     26 H           2.3291    1.4529    0.0000 H       1  UNL1        0.0352
     27 H           1.6900    1.1799    0.0000 H       1  UNL1        0.0236
     28 H           1.4631    0.3329    0.0000 H       1  UNL1        0.0236
     29 H           2.3100    0.1060    0.0000 H       1  UNL1        0.0236
     30 H           3.7320    3.2629    0.0000 H       1  UNL1        0.0623
     31 H           5.4848   -0.0117    0.0000 H       1  UNL1        0.0658
     32 H           2.3100    3.1799    0.0000 H       1  UNL1        0.0275
     33 H           1.4631    2.9529    0.0000 H       1  UNL1        0.0275
     34 H           1.6900    2.1060    0.0000 H       1  UNL1        0.0275
     35 H           5.4848    3.2976    0.0000 H       1  UNL1        0.0661
     36 H           2.3291   -0.5471    0.0000 H       1  UNL1        0.0658
     37 H           5.1350   -0.5471    0.0000 H       1  UNL1        0.0622
     38 H           5.1350   -2.1671    0.0000 H       1  UNL1        0.0655
     39 H           7.8003    0.9267    0.0000 H       1  UNL1        0.2923
     40 H           4.2690   -3.6671    0.0000 H       1  UNL1        0.2923
     41 H           7.8783    3.6695    0.0000 H       1  UNL1        0.0660
     42 H           7.2559    4.2871    0.0000 H       1  UNL1        0.0660
     43 H           6.6383    3.6647    0.0000 H       1  UNL1        0.0660
     44 H           1.3800   -3.3571    0.0000 H       1  UNL1        0.0660
     45 H           2.0000   -3.9771    0.0000 H       1  UNL1        0.0660
     46 H           2.6200   -3.3571    0.0000 H       1  UNL1        0.0660
@<TRIPOS>BOND
     1     1    19    1
     2     1    23    1
     3     2    18    1
     4     2    39    1
     5     3    20    1
     6     3    24    1
     7     4    22    1
     8     4    40    1
     9     5     6    1
    10     5     7    1
    11     5     9    1
    12     5    25    1
    13     6     8    1
    14     6    11    1
    15     6    26    1
    16     7    10   ar
    17     7    13   ar
    18     8    12    2
    19     8    14    1
    20     9    16   ar
    21     9    17   ar
    22    10    12    1
    23    10    15   ar
    24    11    27    1
    25    11    28    1
    26    11    29    1
    27    12    30    1
    28    13    18   ar
    29    13    31    1
    30    14    32    1
    31    14    33    1
    32    14    34    1
    33    15    19   ar
    34    15    35    1
    35    16    20   ar
    36    16    36    1
    37    17    21   ar
    38    17    37    1
    39    18    19   ar
    40    20    22   ar
    41    21    22   ar
    42    21    38    1
    43    23    41    1
    44    23    42    1
    45    23    43    1
    46    24    44    1
    47    24    45    1
    48    24    46    1
