@<TRIPOS>MOLECULE
IMPHY013724
 76 81 0 0 0
SMALL
GASTEIGER

@<TRIPOS>ATOM
      1 O           5.6547   -0.7851    0.0000 O.3     1  UNL1       -0.4575
      2 O           8.8417    0.2504    0.0000 O.3     1  UNL1       -0.4646
      3 O           9.2018    1.9446    0.0000 O.2     1  UNL1       -0.2453
      4 O           6.9418   -1.9441    0.0000 O.2     1  UNL1       -0.2449
      5 O           5.2435   -5.1246    0.0000 O.3     1  UNL1       -0.4913
      6 O           2.6691   -2.8067    0.0000 O.3     1  UNL1       -0.4913
      7 O           3.2872   -4.7088    0.0000 O.3     1  UNL1       -0.4885
      8 N           4.8116    1.9924    0.0000 N.3     1  UNL1       -0.2975
      9 N           7.8911    2.9929    0.0000 N.pl3   1  UNL1       -0.3164
     10 C           5.7259    1.7980    0.0000 C.3     1  UNL1        0.0346
     11 C           6.3514    2.4926    0.0000 C.3     1  UNL1        0.0531
     12 C           6.0148    0.9091    0.0000 C.3     1  UNL1        0.0285
     13 C           5.9663    3.5283    0.0000 C.3     1  UNL1       -0.0238
     14 C           5.3893    0.2144    0.0000 C.3     1  UNL1       -0.0411
     15 C           6.9291    0.7147    0.0000 C.3     1  UNL1       -0.0089
     16 C           4.5228    2.8813    0.0000 C.3     1  UNL1        0.0004
     17 C           7.2657    2.2983    0.0000 C.2     1  UNL1        0.0304
     18 C           6.3238   -0.0420    0.0000 C.3     1  UNL1        0.1080
     19 C           4.1862    1.2977    0.0000 C.3     1  UNL1       -0.0007
     20 C           6.6880    4.0762    0.0000 C.ar    1  UNL1       -0.0130
     21 C           4.4750    0.4088    0.0000 C.3     1  UNL1       -0.0395
     22 C           7.5545    1.4093    0.0000 C.2     1  UNL1        0.0551
     23 C           7.6023    3.8819    0.0000 C.ar    1  UNL1        0.0353
     24 C           7.3019   -0.2499    0.0000 C.3     1  UNL1       -0.0271
     25 C           6.3991    4.9652    0.0000 C.ar    1  UNL1       -0.0559
     26 C           8.5327    1.2014    0.0000 C.2     1  UNL1        0.3364
     27 C           8.2277    4.5765    0.0000 C.ar    1  UNL1       -0.0403
     28 C           7.0246    5.6598    0.0000 C.ar    1  UNL1       -0.0614
     29 C           7.9389    5.4655    0.0000 C.ar    1  UNL1       -0.0600
     30 C           5.9637   -1.7362    0.0000 C.2     1  UNL1        0.3397
     31 C           5.2946   -2.4794    0.0000 C.ar    1  UNL1        0.0661
     32 C           9.8198    0.0425    0.0000 C.3     1  UNL1        0.0820
     33 C           4.3164   -2.2714    0.0000 C.ar    1  UNL1       -0.0021
     34 C           5.6036   -3.4304    0.0000 C.ar    1  UNL1       -0.0021
     35 C           4.9344   -4.1736    0.0000 C.ar    1  UNL1        0.1660
     36 C           3.6473   -3.0146    0.0000 C.ar    1  UNL1        0.1660
     37 C           3.9563   -3.9656    0.0000 C.ar    1  UNL1        0.2035
     38 C           6.2216   -5.3325    0.0000 C.3     1  UNL1        0.0790
     39 C           2.0000   -3.5498    0.0000 C.3     1  UNL1        0.0790
     40 C           3.5962   -5.6598    0.0000 C.3     1  UNL1        0.0791
     41 H           5.4633    2.6064    0.0000 H       1  UNL1        0.0482
     42 H           6.5426    3.7570    0.0000 H       1  UNL1        0.0290
     43 H           5.7251    4.0994    0.0000 H       1  UNL1        0.0290
     44 H           5.1571   -0.3604    0.0000 H       1  UNL1        0.0273
     45 H           5.9151   -0.1141    0.0000 H       1  UNL1        0.0273
     46 H           6.6968    0.1399    0.0000 H       1  UNL1        0.0323
     47 H           7.4549    0.3862    0.0000 H       1  UNL1        0.0323
     48 H           4.2896    3.4558    0.0000 H       1  UNL1        0.0427
     49 H           3.9404    2.6688    0.0000 H       1  UNL1        0.0427
     50 H           6.5154   -0.6317    0.0000 H       1  UNL1        0.0737
     51 H           3.8045    1.7863    0.0000 H       1  UNL1        0.0427
     52 H           3.6388    1.0067    0.0000 H       1  UNL1        0.0427
     53 H           3.8611    0.3225    0.0000 H       1  UNL1        0.0278
     54 H           4.4534   -0.2109    0.0000 H       1  UNL1        0.0278
     55 H           8.4976    2.8640    0.0000 H       1  UNL1        0.1519
     56 H           7.1730   -0.8564    0.0000 H       1  UNL1        0.0265
     57 H           7.9084   -0.3788    0.0000 H       1  UNL1        0.0265
     58 H           7.4308    0.3565    0.0000 H       1  UNL1        0.0265
     59 H           5.7927    5.0941    0.0000 H       1  UNL1        0.0621
     60 H           8.8342    4.4476    0.0000 H       1  UNL1        0.0636
     61 H           6.8330    6.2495    0.0000 H       1  UNL1        0.0618
     62 H           8.3538    5.9262    0.0000 H       1  UNL1        0.0618
     63 H           9.6909   -0.5640    0.0000 H       1  UNL1        0.0661
     64 H          10.4263   -0.0864    0.0000 H       1  UNL1        0.0661
     65 H           9.9487    0.6489    0.0000 H       1  UNL1        0.0661
     66 H           4.1248   -1.6818    0.0000 H       1  UNL1        0.0663
     67 H           6.2100   -3.5593    0.0000 H       1  UNL1        0.0663
     68 H           6.0927   -5.9390    0.0000 H       1  UNL1        0.0660
     69 H           6.8281   -5.4614    0.0000 H       1  UNL1        0.0660
     70 H           6.3505   -4.7261    0.0000 H       1  UNL1        0.0660
     71 H           1.5392   -3.1350    0.0000 H       1  UNL1        0.0660
     72 H           1.5851   -4.0106    0.0000 H       1  UNL1        0.0660
     73 H           2.4608   -3.9647    0.0000 H       1  UNL1        0.0660
     74 H           3.0065   -5.8514    0.0000 H       1  UNL1        0.0660
     75 H           3.7878   -6.2495    0.0000 H       1  UNL1        0.0660
     76 H           4.1858   -5.4682    0.0000 H       1  UNL1        0.0660
@<TRIPOS>BOND
     1    18     1    1
     2     1    30    1
     3     2    26    1
     4     2    32    1
     5     3    26    2
     6     4    30    2
     7     5    35    1
     8     5    38    1
     9     6    36    1
    10     6    39    1
    11     7    37    1
    12     7    40    1
    13     8    10    1
    14     8    16    1
    15     8    19    1
    16     9    17    1
    17     9    23    1
    18     9    55    1
    19    10    11    1
    20    10    12    1
    21    10    41    1
    22    11    13    1
    23    11    17    1
    24    11    20    1
    25    12    14    1
    26    12    15    1
    27    12    18    1
    28    13    16    1
    29    13    42    1
    30    13    43    1
    31    14    21    1
    32    14    44    1
    33    14    45    1
    34    15    22    1
    35    15    46    1
    36    15    47    1
    37    16    48    1
    38    16    49    1
    39    17    22    2
    40    18    24    1
    41    18    50    1
    42    19    21    1
    43    19    51    1
    44    19    52    1
    45    20    23   ar
    46    20    25   ar
    47    21    53    1
    48    21    54    1
    49    22    26    1
    50    23    27   ar
    51    24    56    1
    52    24    57    1
    53    24    58    1
    54    25    28   ar
    55    25    59    1
    56    27    29   ar
    57    27    60    1
    58    28    29   ar
    59    28    61    1
    60    29    62    1
    61    30    31    1
    62    31    33   ar
    63    31    34   ar
    64    32    63    1
    65    32    64    1
    66    32    65    1
    67    33    36   ar
    68    33    66    1
    69    34    35   ar
    70    34    67    1
    71    35    37   ar
    72    36    37   ar
    73    38    68    1
    74    38    69    1
    75    38    70    1
    76    39    71    1
    77    39    72    1
    78    39    73    1
    79    40    74    1
    80    40    75    1
    81    40    76    1
