@<TRIPOS>MOLECULE
IMPHY008796
 33 35 0 0 0
SMALL
GASTEIGER

@<TRIPOS>ATOM
      1 O           5.5022   -0.7154    0.0000 O.3     1  UNL1       -0.3875
      2 O           6.3683    1.7846    0.0000 O.3     1  UNL1       -0.3911
      3 O           2.0000    0.2878    0.0000 O.2     1  UNL1       -0.2970
      4 C           4.6362    1.7846    0.0000 C.3     1  UNL1        0.0004
      5 C           4.6523   -1.2569    0.0000 C.3     1  UNL1       -0.0007
      6 C           4.6362   -0.2154    0.0000 C.3     1  UNL1        0.0815
      7 C           3.7702    0.2846    0.0000 C.3     1  UNL1        0.0472
      8 C           3.7702    1.2846    0.0000 C.3     1  UNL1       -0.0327
      9 C           5.5022    1.2846    0.0000 C.3     1  UNL1        0.0636
     10 C           5.5022    0.2846    0.0000 C.3     1  UNL1        0.0036
     11 C           3.7542   -1.7846    0.0000 C.3     1  UNL1       -0.0312
     12 C           2.8522   -1.2638    0.0000 C.3     1  UNL1        0.0091
     13 C           2.8602   -0.2222    0.0000 C.2     1  UNL1        0.1394
     14 C           4.6362    2.7846    0.0000 C.3     1  UNL1       -0.0568
     15 C           3.7581   -2.7846    0.0000 C.3     1  UNL1       -0.0617
     16 H           5.3933   -1.6733    0.0000 H       1  UNL1        0.0337
     17 H           3.0341    0.7096    0.0000 H       1  UNL1        0.0406
     18 H           3.5581    1.8672    0.0000 H       1  UNL1        0.0279
     19 H           3.1596    1.1770    0.0000 H       1  UNL1        0.0279
     20 H           5.5022    1.9046    0.0000 H       1  UNL1        0.0600
     21 H           5.7143   -0.2980    0.0000 H       1  UNL1        0.0318
     22 H           6.1128    0.3923    0.0000 H       1  UNL1        0.0318
     23 H           4.2930   -2.0915    0.0000 H       1  UNL1        0.0306
     24 H           2.2421   -1.1530    0.0000 H       1  UNL1        0.0344
     25 H           2.6386   -1.8459    0.0000 H       1  UNL1        0.0344
     26 H           5.2562    2.7846    0.0000 H       1  UNL1        0.0236
     27 H           4.6362    3.4046    0.0000 H       1  UNL1        0.0236
     28 H           4.0162    2.7846    0.0000 H       1  UNL1        0.0236
     29 H           6.0392   -0.4054    0.0000 H       1  UNL1        0.2102
     30 H           3.1381   -2.7870    0.0000 H       1  UNL1        0.0233
     31 H           3.7605   -3.4046    0.0000 H       1  UNL1        0.0233
     32 H           4.3781   -2.7822    0.0000 H       1  UNL1        0.0233
     33 H           6.3683    2.4046    0.0000 H       1  UNL1        0.2098
@<TRIPOS>BOND
     1     6     1    1
     2     1    29    1
     3     9     2    1
     4     2    33    1
     5     3    13    2
     6     4     5    1
     7     4     8    1
     8     4     9    1
     9     4    14    1
    10     5     6    1
    11     5    11    1
    12     5    16    1
    13     6     7    1
    14     6    10    1
    15     7     8    1
    16     7    13    1
    17     7    17    1
    18     8    18    1
    19     8    19    1
    20     9    10    1
    21     9    20    1
    22    10    21    1
    23    10    22    1
    24    11    12    1
    25    11    15    1
    26    11    23    1
    27    12    13    1
    28    12    24    1
    29    12    25    1
    30    14    26    1
    31    14    27    1
    32    14    28    1
    33    15    30    1
    34    15    31    1
    35    15    32    1
