@<TRIPOS>MOLECULE
IMPHY011531
 88 94 0 0 0
SMALL
GASTEIGER

@<TRIPOS>ATOM
      1 O           8.2565   -0.9129    0.0000 O.3     1  UNL1       -0.3851
      2 O           6.7390   -2.0818    0.0000 O.3     1  UNL1       -0.3790
      3 O           4.9163    1.6800    0.0000 O.3     1  UNL1       -0.3791
      4 O           8.6327    1.4285    0.0000 O.3     1  UNL1       -0.4545
      5 O           7.0415    2.9919    0.0000 O.3     1  UNL1       -0.3822
      6 O           9.0456   -0.4717    0.0000 O.3     1  UNL1       -0.3862
      7 O           9.0340    2.1380    0.0000 O.3     1  UNL1       -0.3741
      8 O           3.1654   -0.5901    0.0000 O.3     1  UNL1       -0.3910
      9 O           4.0503   -2.5551    0.0000 O.3     1  UNL1       -0.3823
     10 O           9.8605    0.2068    0.0000 O.2     1  UNL1       -0.2449
     11 N           3.7210   -0.1490    0.0000 N.3     1  UNL1       -0.2979
     12 C           5.6676    0.2462    0.0000 C.3     1  UNL1        0.0222
     13 C           5.6676   -0.6213    0.0000 C.3     1  UNL1        0.0067
     14 C           6.3459    0.7872    0.0000 C.3     1  UNL1       -0.0194
     15 C           4.6656    0.1402    0.0000 C.3     1  UNL1        0.0269
     16 C           7.1918   -0.9692    0.0000 C.3     1  UNL1        0.0335
     17 C           7.1918    0.5941    0.0000 C.3     1  UNL1        0.0343
     18 C           7.5682   -0.1876    0.0000 C.3     1  UNL1        0.1074
     19 C           6.3459   -1.1623    0.0000 C.3     1  UNL1        0.0694
     20 C           4.9163   -1.0551    0.0000 C.3     1  UNL1        0.0386
     21 C           4.9163    0.6800    0.0000 C.3     1  UNL1        0.0683
     22 C           6.2682    1.6512    0.0000 C.3     1  UNL1       -0.0140
     23 C           7.0659    1.9922    0.0000 C.3     1  UNL1        0.1318
     24 C           7.6367    1.3389    0.0000 C.3     1  UNL1        0.1402
     25 C           8.2131    0.0824    0.0000 C.3     1  UNL1        0.1134
     26 C           3.7210   -0.9009    0.0000 C.3     1  UNL1        0.0097
     27 C           4.1649   -0.6213    0.0000 C.3     1  UNL1        0.0668
     28 C           8.2131    1.5669    0.0000 C.3     1  UNL1        0.1189
     29 C           4.1649    0.2462    0.0000 C.3     1  UNL1        0.0008
     30 C           4.9163   -2.0551    0.0000 C.3     1  UNL1        0.0568
     31 C           2.9170    0.4457    0.0000 C.3     1  UNL1       -0.0036
     32 C           6.1391   -2.8819    0.0000 C.3     1  UNL1        0.0368
     33 C           2.0000    0.0468    0.0000 C.3     1  UNL1       -0.0523
     34 C           4.0502    2.1800    0.0000 C.3     1  UNL1        0.0368
     35 C           9.5993    1.1721    0.0000 C.2     1  UNL1        0.3395
     36 C           8.9498    3.1344    0.0000 C.3     1  UNL1        0.0370
     37 C           4.0503   -3.5551    0.0000 C.3     1  UNL1        0.0365
     38 C          10.3046    1.8810    0.0000 C.ar    1  UNL1        0.0590
     39 C          11.2712    1.6246    0.0000 C.ar    1  UNL1       -0.0478
     40 C          10.0434    2.8462    0.0000 C.ar    1  UNL1       -0.0478
     41 C          11.9765    2.3334    0.0000 C.ar    1  UNL1       -0.0610
     42 C          10.7487    3.5551    0.0000 C.ar    1  UNL1       -0.0610
     43 C          11.7153    3.2987    0.0000 C.ar    1  UNL1       -0.0617
     44 H           5.6041   -1.4690    0.0000 H       1  UNL1        0.0340
     45 H           5.5643    1.1212    0.0000 H       1  UNL1        0.0313
     46 H           4.3537    0.9309    0.0000 H       1  UNL1        0.0473
     47 H           7.5783   -1.4540    0.0000 H       1  UNL1        0.0370
     48 H           8.0409    0.5560    0.0000 H       1  UNL1        0.0369
     49 H           6.1455   -1.7490    0.0000 H       1  UNL1        0.0603
     50 H           5.4532    0.9900    0.0000 H       1  UNL1        0.0603
     51 H           6.0854    2.2437    0.0000 H       1  UNL1        0.0298
     52 H           5.6598    1.5314    0.0000 H       1  UNL1        0.0298
     53 H           7.8676    1.9143    0.0000 H       1  UNL1        0.0768
     54 H           8.7596    0.3751    0.0000 H       1  UNL1        0.0649
     55 H           3.1015   -0.8744    0.0000 H       1  UNL1        0.0434
     56 H           3.6680   -1.5186    0.0000 H       1  UNL1        0.0434
     57 H           3.9952   -1.2176    0.0000 H       1  UNL1        0.0601
     58 H           8.1349    2.1819    0.0000 H       1  UNL1        0.0653
     59 H           3.9529    0.8288    0.0000 H       1  UNL1        0.0315
     60 H           3.5544    0.1386    0.0000 H       1  UNL1        0.0315
     61 H           5.1283   -2.6377    0.0000 H       1  UNL1        0.0566
     62 H           5.5269   -1.9475    0.0000 H       1  UNL1        0.0566
     63 H           8.0804   -1.5074    0.0000 H       1  UNL1        0.2103
     64 H           3.3666    0.8725    0.0000 H       1  UNL1        0.0424
     65 H           2.5747    0.9626    0.0000 H       1  UNL1        0.0424
     66 H           7.5707    3.3150    0.0000 H       1  UNL1        0.2104
     67 H           9.0062   -1.0904    0.0000 H       1  UNL1        0.2100
     68 H           2.8388   -1.1171    0.0000 H       1  UNL1        0.2098
     69 H           5.6430   -2.5100    0.0000 H       1  UNL1        0.0524
     70 H           5.7672   -3.3780    0.0000 H       1  UNL1        0.0524
     71 H           6.6352   -3.2538    0.0000 H       1  UNL1        0.0524
     72 H           1.7527    0.6153    0.0000 H       1  UNL1        0.0242
     73 H           1.4315   -0.2006    0.0000 H       1  UNL1        0.0242
     74 H           2.2473   -0.5218    0.0000 H       1  UNL1        0.0242
     75 H           4.3602    2.7170    0.0000 H       1  UNL1        0.0524
     76 H           3.5133    2.4900    0.0000 H       1  UNL1        0.0524
     77 H           3.7402    1.6431    0.0000 H       1  UNL1        0.0524
     78 H           9.5676    3.1866    0.0000 H       1  UNL1        0.0524
     79 H           8.8976    3.7522    0.0000 H       1  UNL1        0.0524
     80 H           8.3320    3.0823    0.0000 H       1  UNL1        0.0524
     81 H           3.4303   -3.5551    0.0000 H       1  UNL1        0.0523
     82 H           4.0503   -4.1751    0.0000 H       1  UNL1        0.0523
     83 H           4.6703   -3.5551    0.0000 H       1  UNL1        0.0523
     84 H          11.4331    1.0261    0.0000 H       1  UNL1        0.0626
     85 H           9.4441    3.0052    0.0000 H       1  UNL1        0.0626
     86 H          12.5758    2.1745    0.0000 H       1  UNL1        0.0618
     87 H          10.5868    4.1536    0.0000 H       1  UNL1        0.0618
     88 H          12.1526    3.7382    0.0000 H       1  UNL1        0.0618
@<TRIPOS>BOND
     1    18     1    1
     2     1    63    1
     3     2    19    1
     4     2    32    1
     5    21     3    1
     6     3    34    1
     7    24     4    1
     8     4    35    1
     9    23     5    1
    10     5    66    1
    11    25     6    1
    12     6    67    1
    13    28     7    1
    14     7    36    1
    15    27     8    1
    16     8    68    1
    17     9    30    1
    18     9    37    1
    19    10    35    2
    20    11    15    1
    21    11    26    1
    22    11    31    1
    23    12    13    1
    24    12    14    1
    25    12    15    1
    26    12    21    1
    27    13    19    1
    28    13    20    1
    29    13    44    1
    30    14    17    1
    31    14    22    1
    32    14    45    1
    33    15    16    1
    34    15    46    1
    35    16    18    1
    36    16    19    1
    37    16    47    1
    38    17    18    1
    39    17    24    1
    40    17    48    1
    41    18    25    1
    42    19    49    1
    43    20    26    1
    44    20    27    1
    45    20    30    1
    46    21    29    1
    47    21    50    1
    48    22    23    1
    49    22    51    1
    50    22    52    1
    51    23    24    1
    52    23    28    1
    53    24    53    1
    54    25    28    1
    55    25    54    1
    56    26    55    1
    57    26    56    1
    58    27    29    1
    59    27    57    1
    60    28    58    1
    61    29    59    1
    62    29    60    1
    63    30    61    1
    64    30    62    1
    65    31    33    1
    66    31    64    1
    67    31    65    1
    68    32    69    1
    69    32    70    1
    70    32    71    1
    71    33    72    1
    72    33    73    1
    73    33    74    1
    74    34    75    1
    75    34    76    1
    76    34    77    1
    77    35    38    1
    78    36    78    1
    79    36    79    1
    80    36    80    1
    81    37    81    1
    82    37    82    1
    83    37    83    1
    84    38    39   ar
    85    38    40   ar
    86    39    41   ar
    87    39    84    1
    88    40    42   ar
    89    40    85    1
    90    41    43   ar
    91    41    86    1
    92    42    43   ar
    93    42    87    1
    94    43    88    1
