@<TRIPOS>MOLECULE
IMPHY008583
 83 88 0 0 0
SMALL
GASTEIGER

@<TRIPOS>ATOM
      1 O           6.9357   -2.1102    0.0000 O.3     1  UNL1       -0.3300
      2 O           8.2960    0.6533    0.0000 O.3     1  UNL1       -0.4523
      3 O           7.5038   -2.0045    0.0000 O.3     1  UNL1       -0.3853
      4 O           9.4704   -1.2757    0.0000 O.3     1  UNL1       -0.3818
      5 O           8.4445   -2.9499    0.0000 O.3     1  UNL1       -0.4287
      6 O           4.6912   -0.3126    0.0000 O.3     1  UNL1       -0.4584
      7 O           8.9032    2.1193    0.0000 O.2     1  UNL1       -0.2449
      8 O           6.9445   -3.8159    0.0000 O.2     1  UNL1       -0.2449
      9 O           3.4323    0.6533    0.0000 O.2     1  UNL1       -0.2449
     10 O           8.5259    4.7640    0.0000 O.3     1  UNL1       -0.4476
     11 O           5.1680    3.9992    0.0000 O.3     1  UNL1       -0.5028
     12 O           5.7272    4.1490    0.0000 O.3     1  UNL1       -0.5028
     13 O           6.5474    5.2942    0.0000 O.3     1  UNL1       -0.5009
     14 O           3.8851    4.5808    0.0000 O.3     1  UNL1       -0.5009
     15 O           2.4367    3.1324    0.0000 O.3     1  UNL1       -0.5032
     16 O          10.9445   -5.5480    0.0000 O.3     1  UNL1       -0.5032
     17 O           7.9445   -7.2800    0.0000 O.3     1  UNL1       -0.5032
     18 O           9.9445   -7.2800    0.0000 O.3     1  UNL1       -0.5009
     19 O           9.9347    3.3444    0.0000 O.3     1  UNL1       -0.5008
     20 O          11.8685    3.8546    0.0000 O.3     1  UNL1       -0.5008
     21 O          12.3936    5.7844    0.0000 O.3     1  UNL1       -0.5032
     22 O           9.3135    7.6588    0.0000 O.3     1  UNL1       -0.4770
     23 O           8.0841    6.4388    0.0000 O.2     1  UNL1       -0.2450
     24 C           8.0372   -0.3126    0.0000 C.3     1  UNL1        0.1631
     25 C           7.3301   -1.0197    0.0000 C.3     1  UNL1        0.1241
     26 C           6.3642   -1.2785    0.0000 C.3     1  UNL1        0.1260
     27 C           8.4718   -1.2234    0.0000 C.3     1  UNL1        0.1565
     28 C           7.9445   -2.0839    0.0000 C.3     1  UNL1        0.2352
     29 C           5.3982   -1.0197    0.0000 C.3     1  UNL1        0.1216
     30 C           8.0372    1.6193    0.0000 C.2     1  UNL1        0.3404
     31 C           7.3301    2.3264    0.0000 C.ar    1  UNL1        0.0740
     32 C           7.9445   -3.8159    0.0000 C.2     1  UNL1        0.3417
     33 C           6.3642    2.5852    0.0000 C.ar    1  UNL1        0.0458
     34 C           4.4323    0.6533    0.0000 C.2     1  UNL1        0.3401
     35 C           5.3982    2.3264    0.0000 C.ar    1  UNL1        0.0458
     36 C           4.6912    1.6193    0.0000 C.ar    1  UNL1        0.0740
     37 C           8.0779    3.0515    0.0000 C.ar    1  UNL1       -0.0009
     38 C           6.0791    3.5870    0.0000 C.ar    1  UNL1        0.1708
     39 C           8.4445   -4.6819    0.0000 C.ar    1  UNL1        0.0662
     40 C           5.1442    3.3366    0.0000 C.ar    1  UNL1        0.1708
     41 C           7.8161    4.0597    0.0000 C.ar    1  UNL1        0.1743
     42 C           3.6810    1.8733    0.0000 C.ar    1  UNL1       -0.0017
     43 C           6.8100    4.3292    0.0000 C.ar    1  UNL1        0.2021
     44 C           4.1402    3.6139    0.0000 C.ar    1  UNL1        0.2012
     45 C           3.4036    2.8773    0.0000 C.ar    1  UNL1        0.1628
     46 C           7.9445   -5.5480    0.0000 C.ar    1  UNL1       -0.0023
     47 C           9.4445   -4.6819    0.0000 C.ar    1  UNL1       -0.0023
     48 C           9.9445   -5.5480    0.0000 C.ar    1  UNL1        0.1628
     49 C           8.4445   -6.4140    0.0000 C.ar    1  UNL1        0.1628
     50 C           9.4445   -6.4140    0.0000 C.ar    1  UNL1        0.2006
     51 C           9.4928    5.0191    0.0000 C.ar    1  UNL1        0.1876
     52 C           9.7554    5.9840    0.0000 C.ar    1  UNL1        0.1083
     53 C          10.1972    4.3093    0.0000 C.ar    1  UNL1        0.2060
     54 C          10.7223    6.2391    0.0000 C.ar    1  UNL1        0.0013
     55 C          11.1641    4.5644    0.0000 C.ar    1  UNL1        0.2044
     56 C          11.4267    5.5293    0.0000 C.ar    1  UNL1        0.1630
     57 C           9.0510    6.6939    0.0000 C.2     1  UNL1        0.3406
     58 H           7.3011    0.1124    0.0000 H       1  UNL1        0.0790
     59 H           7.9214   -1.2061    0.0000 H       1  UNL1        0.0658
     60 H           5.8736   -1.9726    0.0000 H       1  UNL1        0.0659
     61 H           8.8162   -0.7079    0.0000 H       1  UNL1        0.0694
     62 H           7.6416   -2.6248    0.0000 H       1  UNL1        0.1086
     63 H           4.8363   -1.2817    0.0000 H       1  UNL1        0.0725
     64 H           5.7082   -0.4828    0.0000 H       1  UNL1        0.0725
     65 H           7.3961   -2.6151    0.0000 H       1  UNL1        0.2101
     66 H           9.7519   -1.8281    0.0000 H       1  UNL1        0.2102
     67 H           8.6749    2.8841    0.0000 H       1  UNL1        0.0664
     68 H           3.2477    1.4299    0.0000 H       1  UNL1        0.0664
     69 H           7.3245   -5.5480    0.0000 H       1  UNL1        0.0663
     70 H           9.7545   -4.1450    0.0000 H       1  UNL1        0.0663
     71 H           4.8995    4.5580    0.0000 H       1  UNL1        0.2923
     72 H           5.6803    4.7672    0.0000 H       1  UNL1        0.2923
     73 H           6.9841    5.7343    0.0000 H       1  UNL1        0.2924
     74 H           3.2868    4.7436    0.0000 H       1  UNL1        0.2924
     75 H           2.0000    2.6923    0.0000 H       1  UNL1        0.2923
     76 H          11.2545   -6.0849    0.0000 H       1  UNL1        0.2923
     77 H           7.3245   -7.2800    0.0000 H       1  UNL1        0.2923
     78 H          10.8851    6.8374    0.0000 H       1  UNL1        0.0665
     79 H           9.6345   -7.8170    0.0000 H       1  UNL1        0.2924
     80 H           9.3353    3.1863    0.0000 H       1  UNL1        0.2924
     81 H          12.4680    4.0127    0.0000 H       1  UNL1        0.2924
     82 H          12.5564    6.3827    0.0000 H       1  UNL1        0.2923
     83 H           9.9130    7.8170    0.0000 H       1  UNL1        0.2954
@<TRIPOS>BOND
     1     1    26    1
     2     1    28    1
     3     2    24    1
     4     2    30    1
     5    25     3    1
     6     3    65    1
     7    27     4    1
     8     4    66    1
     9    28     5    1
    10     5    32    1
    11     6    29    1
    12     6    34    1
    13     7    30    2
    14     8    32    2
    15     9    34    2
    16    10    41    1
    17    10    51    1
    18    11    38    1
    19    11    71    1
    20    12    40    1
    21    12    72    1
    22    13    43    1
    23    13    73    1
    24    14    44    1
    25    14    74    1
    26    15    45    1
    27    15    75    1
    28    16    48    1
    29    16    76    1
    30    17    49    1
    31    17    77    1
    32    18    50    1
    33    18    79    1
    34    19    53    1
    35    19    80    1
    36    20    55    1
    37    20    81    1
    38    21    56    1
    39    21    82    1
    40    22    57    1
    41    22    83    1
    42    23    57    2
    43    24    25    1
    44    24    27    1
    45    24    58    1
    46    25    26    1
    47    25    59    1
    48    26    29    1
    49    26    60    1
    50    27    28    1
    51    27    61    1
    52    28    62    1
    53    29    63    1
    54    29    64    1
    55    30    31    1
    56    31    33   ar
    57    31    37   ar
    58    32    39    1
    59    33    35    1
    60    33    38   ar
    61    34    36    1
    62    35    36   ar
    63    35    40   ar
    64    36    42   ar
    65    37    41   ar
    66    37    67    1
    67    38    43   ar
    68    39    46   ar
    69    39    47   ar
    70    40    44   ar
    71    41    43   ar
    72    42    45   ar
    73    42    68    1
    74    44    45   ar
    75    46    49   ar
    76    46    69    1
    77    47    48   ar
    78    47    70    1
    79    48    50   ar
    80    49    50   ar
    81    51    52   ar
    82    51    53   ar
    83    52    54   ar
    84    52    57    1
    85    53    55   ar
    86    54    56   ar
    87    54    78    1
    88    55    56   ar
