@<TRIPOS>MOLECULE
IMPHY007695
 47 50 0 0 0
SMALL
GASTEIGER

@<TRIPOS>ATOM
      1 O           7.0540   -0.4647    0.0000 O.3     1  UNL1       -0.3636
      2 O          11.5118   -0.2533    0.0000 O.3     1  UNL1       -0.4526
      3 O          11.5118   -1.8627    0.0000 O.3     1  UNL1       -0.4526
      4 O           3.2202    1.6874    0.0000 O.3     1  UNL1       -0.5033
      5 O           2.4067   -0.1397    0.0000 O.3     1  UNL1       -0.4915
      6 C           7.8630    0.9365    0.0000 C.3     1  UNL1       -0.0081
      7 C           6.8848    1.1444    0.0000 C.3     1  UNL1       -0.0081
      8 C           7.9675   -0.0580    0.0000 C.3     1  UNL1        0.0874
      9 C           6.3848    0.2784    0.0000 C.3     1  UNL1        0.0874
     10 C           8.6061    1.6057    0.0000 C.3     1  UNL1       -0.0594
     11 C           6.4781    2.0580    0.0000 C.3     1  UNL1       -0.0594
     12 C           8.8335   -0.5580    0.0000 C.ar    1  UNL1       -0.0149
     13 C           5.3903    0.1739    0.0000 C.ar    1  UNL1       -0.0149
     14 C           9.6996   -0.0580    0.0000 C.ar    1  UNL1       -0.0105
     15 C           8.8335   -1.5580    0.0000 C.ar    1  UNL1       -0.0524
     16 C           4.8025    0.9829    0.0000 C.ar    1  UNL1       -0.0109
     17 C           4.9836   -0.7397    0.0000 C.ar    1  UNL1       -0.0524
     18 C          10.5656   -0.5580    0.0000 C.ar    1  UNL1        0.1666
     19 C           9.6996   -2.0580    0.0000 C.ar    1  UNL1       -0.0158
     20 C          10.5656   -1.5580    0.0000 C.ar    1  UNL1        0.1662
     21 C           3.8080    0.8784    0.0000 C.ar    1  UNL1        0.1588
     22 C           3.9890   -0.8442    0.0000 C.ar    1  UNL1       -0.0160
     23 C           3.4013   -0.0352    0.0000 C.ar    1  UNL1        0.1613
     24 C          12.0954   -1.0580    0.0000 C.3     1  UNL1        0.2332
     25 C           2.0000   -1.0532    0.0000 C.3     1  UNL1        0.0790
     26 H           8.4418    0.7143    0.0000 H       1  UNL1        0.0330
     27 H           7.2750    1.6263    0.0000 H       1  UNL1        0.0330
     28 H           7.9350   -0.6771    0.0000 H       1  UNL1        0.0649
     29 H           6.0472    0.7984    0.0000 H       1  UNL1        0.0649
     30 H           9.0210    1.1449    0.0000 H       1  UNL1        0.0233
     31 H           9.0669    2.0205    0.0000 H       1  UNL1        0.0233
     32 H           8.1913    2.0664    0.0000 H       1  UNL1        0.0233
     33 H           7.0445    2.3102    0.0000 H       1  UNL1        0.0233
     34 H           6.2259    2.6244    0.0000 H       1  UNL1        0.0233
     35 H           5.9117    1.8058    0.0000 H       1  UNL1        0.0233
     36 H           9.6996    0.5620    0.0000 H       1  UNL1        0.0659
     37 H           8.2966   -1.8680    0.0000 H       1  UNL1        0.0622
     38 H           5.0547    1.5493    0.0000 H       1  UNL1        0.0659
     39 H           5.3480   -1.2412    0.0000 H       1  UNL1        0.0622
     40 H           9.6996   -2.6780    0.0000 H       1  UNL1        0.0655
     41 H           3.7369   -1.4106    0.0000 H       1  UNL1        0.0655
     42 H          12.5563   -1.4727    0.0000 H       1  UNL1        0.1166
     43 H          12.5563   -0.6433    0.0000 H       1  UNL1        0.1166
     44 H           2.6036    1.6226    0.0000 H       1  UNL1        0.2923
     45 H           1.4336   -0.8011    0.0000 H       1  UNL1        0.0660
     46 H           1.7478   -1.6196    0.0000 H       1  UNL1        0.0660
     47 H           2.5664   -1.3054    0.0000 H       1  UNL1        0.0660
@<TRIPOS>BOND
     1     1     8    1
     2     1     9    1
     3     2    18    1
     4     2    24    1
     5     3    20    1
     6     3    24    1
     7     4    21    1
     8     4    44    1
     9     5    23    1
    10     5    25    1
    11     6     7    1
    12     6     8    1
    13     6    10    1
    14     6    26    1
    15     7     9    1
    16     7    11    1
    17     7    27    1
    18     8    12    1
    19     8    28    1
    20     9    13    1
    21     9    29    1
    22    10    30    1
    23    10    31    1
    24    10    32    1
    25    11    33    1
    26    11    34    1
    27    11    35    1
    28    12    14   ar
    29    12    15   ar
    30    13    16   ar
    31    13    17   ar
    32    14    18   ar
    33    14    36    1
    34    15    19   ar
    35    15    37    1
    36    16    21   ar
    37    16    38    1
    38    17    22   ar
    39    17    39    1
    40    18    20   ar
    41    19    20   ar
    42    19    40    1
    43    21    23   ar
    44    22    23   ar
    45    22    41    1
    46    24    42    1
    47    24    43    1
    48    25    45    1
    49    25    46    1
    50    25    47    1
