@<TRIPOS>MOLECULE
IMPHY006967
 38 40 0 0 0
SMALL
GASTEIGER

@<TRIPOS>ATOM
      1 O          12.4725   -0.4453    0.0000 O.3     1  UNL1       -0.4526
      2 O          12.4725   -2.0547    0.0000 O.3     1  UNL1       -0.4526
      3 O           3.7320    0.7500    0.0000 O.3     1  UNL1       -0.4614
      4 O           8.9282    0.7500    0.0000 O.2     1  UNL1       -0.2699
      5 O           4.5981    2.2500    0.0000 O.2     1  UNL1       -0.2450
      6 N           8.0622   -0.7500    0.0000 N.am    1  UNL1       -0.2815
      7 C          11.5263   -0.7500    0.0000 C.ar    1  UNL1        0.1669
      8 C           9.7942   -0.7500    0.0000 C.ar    1  UNL1        0.0407
      9 C          11.5263   -1.7500    0.0000 C.ar    1  UNL1        0.1663
     10 C          10.6603   -0.2500    0.0000 C.ar    1  UNL1       -0.0040
     11 C           9.7942   -1.7500    0.0000 C.ar    1  UNL1       -0.0459
     12 C          10.6603   -2.2500    0.0000 C.ar    1  UNL1       -0.0154
     13 C           8.9282   -0.2500    0.0000 C.2     1  UNL1        0.2484
     14 C           7.1962   -0.2500    0.0000 C.ar    1  UNL1        0.0337
     15 C          13.0561   -1.2500    0.0000 C.3     1  UNL1        0.2332
     16 C           5.4641    0.7500    0.0000 C.ar    1  UNL1        0.0591
     17 C           7.1962    0.7500    0.0000 C.ar    1  UNL1       -0.0397
     18 C           6.3301   -0.7500    0.0000 C.ar    1  UNL1       -0.0397
     19 C           6.3301    1.2500    0.0000 C.ar    1  UNL1       -0.0460
     20 C           5.4641   -0.2500    0.0000 C.ar    1  UNL1       -0.0460
     21 C           4.5981    1.2500    0.0000 C.2     1  UNL1        0.3392
     22 C           2.8660    1.2500    0.0000 C.3     1  UNL1        0.0900
     23 C           2.0000    0.7500    0.0000 C.3     1  UNL1       -0.0306
     24 H          10.6603    0.3700    0.0000 H       1  UNL1        0.0663
     25 H           9.2573   -2.0600    0.0000 H       1  UNL1        0.0626
     26 H          10.6603   -2.8700    0.0000 H       1  UNL1        0.0655
     27 H          13.5170   -1.6647    0.0000 H       1  UNL1        0.1166
     28 H          13.5170   -0.8353    0.0000 H       1  UNL1        0.1166
     29 H           8.0622   -1.3700    0.0000 H       1  UNL1        0.1551
     30 H           7.7331    1.0600    0.0000 H       1  UNL1        0.0636
     31 H           6.3301   -1.3700    0.0000 H       1  UNL1        0.0636
     32 H           6.3301    1.8700    0.0000 H       1  UNL1        0.0626
     33 H           4.9272   -0.5600    0.0000 H       1  UNL1        0.0626
     34 H           3.2646    1.7250    0.0000 H       1  UNL1        0.0695
     35 H           2.4675    1.7250    0.0000 H       1  UNL1        0.0695
     36 H           1.6900    1.2869    0.0000 H       1  UNL1        0.0262
     37 H           1.4631    0.4400    0.0000 H       1  UNL1        0.0262
     38 H           2.3100    0.2131    0.0000 H       1  UNL1        0.0262
@<TRIPOS>BOND
     1     1     7    1
     2     1    15    1
     3     2     9    1
     4     2    15    1
     5     3    21    1
     6     3    22    1
     7     4    13    2
     8     5    21    2
     9     6    13   am
    10     6    14    1
    11     6    29    1
    12     7     9   ar
    13     7    10   ar
    14     8    10   ar
    15     8    11   ar
    16     8    13    1
    17     9    12   ar
    18    10    24    1
    19    11    12   ar
    20    11    25    1
    21    12    26    1
    22    14    17   ar
    23    14    18   ar
    24    15    27    1
    25    15    28    1
    26    16    19   ar
    27    16    20   ar
    28    16    21    1
    29    17    19   ar
    30    17    30    1
    31    18    20   ar
    32    18    31    1
    33    19    32    1
    34    20    33    1
    35    22    23    1
    36    22    34    1
    37    22    35    1
    38    23    36    1
    39    23    37    1
    40    23    38    1
