@<TRIPOS>MOLECULE
IMPHY007773
 37 40 0 0 0
SMALL
GASTEIGER

@<TRIPOS>ATOM
      1 O           6.3136   -1.0304    0.0000 O.3     1  UNL1       -0.3843
      2 O           6.1846    1.1367    0.0000 O.3     1  UNL1       -0.4225
      3 O           6.3136   -0.0304    0.0000 O.3     1  UNL1       -0.3500
      4 O           6.2795    2.9105    0.0000 O.2     1  UNL1       -0.2452
      5 C           4.3723   -2.0022    0.0000 C.3     1  UNL1       -0.0254
      6 C           4.5816   -1.0304    0.0000 C.3     1  UNL1        0.0106
      7 C           3.3836   -2.1053    0.0000 C.3     1  UNL1       -0.0161
      8 C           3.9673   -2.9105    0.0000 C.3     1  UNL1       -0.0423
      9 C           3.7155   -0.5304    0.0000 C.3     1  UNL1       -0.0077
     10 C           2.9785   -1.1975    0.0000 C.2     1  UNL1       -0.0692
     11 C           5.4476   -0.5304    0.0000 C.3     1  UNL1        0.1307
     12 C           3.7155    0.4696    0.0000 C.3     1  UNL1       -0.0177
     13 C           5.4476   -1.5304    0.0000 C.3     1  UNL1       -0.0561
     14 C           5.4476    0.4696    0.0000 C.3     1  UNL1        0.2635
     15 C           4.5816    0.9696    0.0000 C.2     1  UNL1        0.0138
     16 C           2.0000   -0.9913    0.0000 C.2     1  UNL1       -0.0989
     17 C           4.7908    1.9414    0.0000 C.2     1  UNL1        0.0391
     18 C           5.7795    2.0445    0.0000 C.2     1  UNL1        0.3377
     19 C           4.1229    2.6857    0.0000 C.3     1  UNL1       -0.0328
     20 H           5.1803   -2.2662    0.0000 H       1  UNL1        0.0313
     21 H           2.6474   -2.5302    0.0000 H       1  UNL1        0.0349
     22 H           3.5362   -3.3561    0.0000 H       1  UNL1        0.0274
     23 H           4.4810   -3.2576    0.0000 H       1  UNL1        0.0274
     24 H           2.9386   -0.1857    0.0000 H       1  UNL1        0.0355
     25 H           5.9845   -0.2204    0.0000 H       1  UNL1        0.0669
     26 H           3.5035    1.0522    0.0000 H       1  UNL1        0.0318
     27 H           3.1049    0.3619    0.0000 H       1  UNL1        0.0318
     28 H           5.1376   -2.0673    0.0000 H       1  UNL1        0.0236
     29 H           5.9845   -1.8404    0.0000 H       1  UNL1        0.0236
     30 H           5.7576   -0.9935    0.0000 H       1  UNL1        0.0236
     31 H           1.8074   -0.4019    0.0000 H       1  UNL1        0.0535
     32 H           1.5859   -1.4527    0.0000 H       1  UNL1        0.0535
     33 H           6.3136   -1.6504    0.0000 H       1  UNL1        0.2101
     34 H           6.8505    0.2796    0.0000 H       1  UNL1        0.2142
     35 H           4.5844    3.0998    0.0000 H       1  UNL1        0.0280
     36 H           3.7088    3.1472    0.0000 H       1  UNL1        0.0280
     37 H           3.6614    2.2717    0.0000 H       1  UNL1        0.0280
@<TRIPOS>BOND
     1    11     1    1
     2     1    33    1
     3     2    14    1
     4     2    18    1
     5    14     3    1
     6     3    34    1
     7     4    18    2
     8     5     6    1
     9     5     7    1
    10     5     8    1
    11     5    20    1
    12     6     9    1
    13     6    11    1
    14     6    13    1
    15     7     8    1
    16     7    10    1
    17     7    21    1
    18     8    22    1
    19     8    23    1
    20     9    10    1
    21     9    12    1
    22     9    24    1
    23    10    16    2
    24    11    14    1
    25    11    25    1
    26    12    15    1
    27    12    26    1
    28    12    27    1
    29    13    28    1
    30    13    29    1
    31    13    30    1
    32    14    15    1
    33    15    17    2
    34    16    31    1
    35    16    32    1
    36    17    18    1
    37    17    19    1
    38    19    35    1
    39    19    36    1
    40    19    37    1
