@<TRIPOS>MOLECULE
IMPHY001515
 44 46 0 0 0
SMALL
GASTEIGER

@<TRIPOS>ATOM
      1 O           6.0812    0.4943    0.0000 O.2     1  UNL1       -0.4547
      2 O           9.6648   -0.4330    0.0000 O.3     1  UNL1       -0.4947
      3 O           9.6648    3.0311    0.0000 O.3     1  UNL1       -0.5066
      4 O           2.5369    0.2990    0.0000 O.3     1  UNL1       -0.5066
      5 C           8.1648    0.4330    0.0000 C.ar    1  UNL1        0.0089
      6 C           7.6648    1.2990    0.0000 C.ar    1  UNL1        0.0277
      7 C           6.6648    1.2990    0.0000 C.ar    1  UNL1        0.1367
      8 C           7.6648   -0.4330    0.0000 C.3     1  UNL1       -0.0051
      9 C           9.1648    0.4330    0.0000 C.ar    1  UNL1        0.1277
     10 C           5.1350    1.7990    0.0000 C.ar    1  UNL1        0.0210
     11 C           6.0812    2.1038    0.0000 C.ar    1  UNL1       -0.0081
     12 C           8.1648    2.1651    0.0000 C.ar    1  UNL1       -0.0090
     13 C           5.1350    0.7990    0.0000 C.ar    1  UNL1        0.1391
     14 C           9.6648    1.2990    0.0000 C.ar    1  UNL1        0.0218
     15 C           9.1648    2.1651    0.0000 C.ar    1  UNL1        0.1210
     16 C           8.1648   -1.2990    0.0000 C.2     1  UNL1       -0.0808
     17 C           4.2690    2.2990    0.0000 C.ar    1  UNL1       -0.0475
     18 C           4.2690    0.2990    0.0000 C.ar    1  UNL1        0.0227
     19 C           7.6648   -2.1651    0.0000 C.2     1  UNL1       -0.0793
     20 C           3.4030    0.7990    0.0000 C.ar    1  UNL1        0.1204
     21 C           3.4030    1.7990    0.0000 C.ar    1  UNL1       -0.0194
     22 C           8.1648   -3.0311    0.0000 C.3     1  UNL1       -0.0440
     23 C           6.6648   -2.1651    0.0000 C.3     1  UNL1       -0.0440
     24 C          10.6648   -0.4330    0.0000 C.3     1  UNL1        0.0788
     25 H           7.1899   -0.0345    0.0000 H       1  UNL1        0.0357
     26 H           7.1899   -0.8315    0.0000 H       1  UNL1        0.0357
     27 H           6.2738    2.6931    0.0000 H       1  UNL1        0.0661
     28 H           7.8548    2.7020    0.0000 H       1  UNL1        0.0661
     29 H          10.2848    1.2990    0.0000 H       1  UNL1        0.0691
     30 H           8.7848   -1.2990    0.0000 H       1  UNL1        0.0575
     31 H           4.2690    2.9190    0.0000 H       1  UNL1        0.0626
     32 H           4.2690   -0.3210    0.0000 H       1  UNL1        0.0691
     33 H           2.8660    2.1090    0.0000 H       1  UNL1        0.0654
     34 H           6.6648   -1.5451    0.0000 H       1  UNL1        0.0274
     35 H           6.0448   -2.1651    0.0000 H       1  UNL1        0.0274
     36 H           6.6648   -2.7851    0.0000 H       1  UNL1        0.0274
     37 H           7.6279   -3.3411    0.0000 H       1  UNL1        0.0274
     38 H           8.4748   -3.5680    0.0000 H       1  UNL1        0.0274
     39 H           8.7018   -2.7211    0.0000 H       1  UNL1        0.0274
     40 H          10.2848    3.0311    0.0000 H       1  UNL1        0.2921
     41 H          10.6648   -1.0530    0.0000 H       1  UNL1        0.0660
     42 H          11.2848   -0.4330    0.0000 H       1  UNL1        0.0660
     43 H          10.6648    0.1870    0.0000 H       1  UNL1        0.0660
     44 H           2.0000    0.6090    0.0000 H       1  UNL1        0.2921
@<TRIPOS>BOND
     1     1     7   ar
     2     1    13   ar
     3     2     9    1
     4     2    24    1
     5     3    15    1
     6     3    40    1
     7     4    20    1
     8     4    44    1
     9     5     6   ar
    10     5     8    1
    11     5     9   ar
    12     6     7    1
    13     6    12   ar
    14     7    11   ar
    15     8    16    1
    16     8    25    1
    17     8    26    1
    18     9    14   ar
    19    10    11   ar
    20    10    13   ar
    21    10    17   ar
    22    11    27    1
    23    12    15   ar
    24    12    28    1
    25    13    18   ar
    26    14    15   ar
    27    14    29    1
    28    16    19    2
    29    16    30    1
    30    17    21   ar
    31    17    31    1
    32    18    20   ar
    33    18    32    1
    34    19    22    1
    35    19    23    1
    36    20    21   ar
    37    21    33    1
    38    22    37    1
    39    22    38    1
    40    22    39    1
    41    23    34    1
    42    23    35    1
    43    23    36    1
    44    24    41    1
    45    24    42    1
    46    24    43    1
