@<TRIPOS>MOLECULE
IMPHY004352
 38 40 0 0 0
SMALL
GASTEIGER

@<TRIPOS>ATOM
      1 O           2.4788    1.1167    0.0000 O.2     1  UNL1       -0.2921
      2 C           4.5772   -0.5146    0.0000 C.3     1  UNL1        0.0076
      3 C           4.6841    0.6621    0.0000 C.3     1  UNL1       -0.0151
      4 C           4.0772    1.6760    0.0000 C.3     1  UNL1        0.0278
      5 C           5.4782   -0.0807    0.0000 C.3     1  UNL1       -0.0336
      6 C           3.6763   -0.0807    0.0000 C.2     1  UNL1        0.0012
      7 C           4.4413   -1.4994    0.0000 C.3     1  UNL1       -0.0388
      8 C           5.0772    1.6760    0.0000 C.3     1  UNL1       -0.0424
      9 C           5.7007    0.8942    0.0000 C.3     1  UNL1       -0.0490
     10 C           3.4538    0.8942    0.0000 C.2     1  UNL1        0.1633
     11 C           3.4630   -1.6760    0.0000 C.3     1  UNL1       -0.0305
     12 C           2.9912   -0.8010    0.0000 C.2     1  UNL1       -0.0656
     13 C           5.5796    1.3836    0.0000 C.3     1  UNL1       -0.0583
     14 C           5.8040    0.4007    0.0000 C.3     1  UNL1       -0.0583
     15 C           6.2600   -0.7042    0.0000 C.3     1  UNL1       -0.0616
     16 C           2.0000   -0.6685    0.0000 C.3     1  UNL1       -0.0431
     17 H           3.7084    2.4418    0.0000 H       1  UNL1        0.0386
     18 H           5.3830   -0.9254    0.0000 H       1  UNL1        0.0307
     19 H           4.4867   -2.1177    0.0000 H       1  UNL1        0.0277
     20 H           5.0609   -1.5192    0.0000 H       1  UNL1        0.0277
     21 H           5.6358    1.9450    0.0000 H       1  UNL1        0.0272
     22 H           4.9393    2.2805    0.0000 H       1  UNL1        0.0272
     23 H           6.2593    0.6252    0.0000 H       1  UNL1        0.0268
     24 H           6.0873    1.3789    0.0000 H       1  UNL1        0.0268
     25 H           2.8894   -1.9113    0.0000 H       1  UNL1        0.0310
     26 H           3.6367   -2.2712    0.0000 H       1  UNL1        0.0310
     27 H           5.6630   -0.2031    0.0000 H       1  UNL1        0.0235
     28 H           6.4077    0.2597    0.0000 H       1  UNL1        0.0235
     29 H           5.9450    1.0044    0.0000 H       1  UNL1        0.0235
     30 H           5.9686    0.9008    0.0000 H       1  UNL1        0.0235
     31 H           6.0624    1.7726    0.0000 H       1  UNL1        0.0235
     32 H           5.1906    1.8664    0.0000 H       1  UNL1        0.0235
     33 H           5.8735   -1.1890    0.0000 H       1  UNL1        0.0233
     34 H           6.7448   -1.0908    0.0000 H       1  UNL1        0.0233
     35 H           6.6466   -0.2195    0.0000 H       1  UNL1        0.0233
     36 H           2.0822   -0.0540    0.0000 H       1  UNL1        0.0275
     37 H           1.3855   -0.5864    0.0000 H       1  UNL1        0.0275
     38 H           1.9178   -1.2830    0.0000 H       1  UNL1        0.0275
@<TRIPOS>BOND
     1     1    10    2
     2     2     3    1
     3     2     5    1
     4     2     6    1
     5     2     7    1
     6     3     4    1
     7     3    13    1
     8     3    14    1
     9     4     8    1
    10     4    10    1
    11     4    17    1
    12     5     9    1
    13     5    15    1
    14     5    18    1
    15     6    10    1
    16     6    12    2
    17     7    11    1
    18     7    19    1
    19     7    20    1
    20     8     9    1
    21     8    21    1
    22     8    22    1
    23     9    23    1
    24     9    24    1
    25    11    12    1
    26    11    25    1
    27    11    26    1
    28    12    16    1
    29    13    30    1
    30    13    31    1
    31    13    32    1
    32    14    27    1
    33    14    28    1
    34    14    29    1
    35    15    33    1
    36    15    34    1
    37    15    35    1
    38    16    36    1
    39    16    37    1
    40    16    38    1
