@<TRIPOS>MOLECULE
IMPHY013150
 60 63 0 0 0
SMALL
GASTEIGER

@<TRIPOS>ATOM
      1 O           6.3582    0.9605    0.0000 O.3     1  UNL1       -0.4827
      2 O           8.5022    3.0290    0.0000 O.3     1  UNL1       -0.4907
      3 O           2.8687    1.8648    0.0000 O.3     1  UNL1       -0.4947
      4 O          11.1418    0.6848    0.0000 O.3     1  UNL1       -0.5064
      5 C           6.8550    2.4938    0.0000 C.3     1  UNL1        0.0630
      6 C           7.1640    1.5427    0.0000 C.3     1  UNL1        0.1385
      7 C           5.8609    2.4912    0.0000 C.ar    1  UNL1        0.0050
      8 C           7.5241    3.2369    0.0000 C.3     1  UNL1        0.1002
      9 C           8.1421    1.3348    0.0000 C.ar    1  UNL1        0.0355
     10 C           5.5545    1.5455    0.0000 C.ar    1  UNL1        0.1320
     11 C           8.8113    2.0780    0.0000 C.ar    1  UNL1        0.1307
     12 C           4.5453    1.3138    0.0000 C.ar    1  UNL1        0.0398
     13 C           5.1793    3.2707    0.0000 C.ar    1  UNL1       -0.0511
     14 C           8.4487    0.3393    0.0000 C.ar    1  UNL1       -0.0446
     15 C           3.8459    2.0773    0.0000 C.ar    1  UNL1        0.1270
     16 C           9.4659    0.1149    0.0000 C.ar    1  UNL1       -0.0016
     17 C           9.8334    1.8771    0.0000 C.ar    1  UNL1        0.0222
     18 C           4.1650    3.0624    0.0000 C.ar    1  UNL1       -0.0192
     19 C           4.2482    0.3589    0.0000 C.3     1  UNL1       -0.0023
     20 C          10.1629    0.8890    0.0000 C.ar    1  UNL1        0.1238
     21 C           9.7712   -0.8373    0.0000 C.3     1  UNL1       -0.0058
     22 C           3.2727    0.1389    0.0000 C.2     1  UNL1       -0.0807
     23 C           9.0992   -1.5779    0.0000 C.2     1  UNL1       -0.0809
     24 C           2.9755   -0.8159    0.0000 C.2     1  UNL1       -0.0793
     25 C           2.1961    2.6047    0.0000 C.3     1  UNL1        0.0788
     26 C           9.4046   -2.5301    0.0000 C.2     1  UNL1       -0.0793
     27 C           2.0000   -1.0360    0.0000 C.3     1  UNL1       -0.0440
     28 C           3.6538   -1.5507    0.0000 C.3     1  UNL1       -0.0440
     29 C           8.7326   -3.2707    0.0000 C.3     1  UNL1       -0.0440
     30 C          10.3819   -2.7418    0.0000 C.3     1  UNL1       -0.0440
     31 H           6.6020    3.0598    0.0000 H       1  UNL1        0.0423
     32 H           7.2921    0.9361    0.0000 H       1  UNL1        0.0793
     33 H           7.7564    3.8118    0.0000 H       1  UNL1        0.0704
     34 H           6.9983    3.5655    0.0000 H       1  UNL1        0.0704
     35 H           5.3772    3.8583    0.0000 H       1  UNL1        0.0623
     36 H           8.0285   -0.1166    0.0000 H       1  UNL1        0.0627
     37 H          10.2429    2.3426    0.0000 H       1  UNL1        0.0691
     38 H           3.7515    3.5243    0.0000 H       1  UNL1        0.0654
     39 H           4.2775   -0.2604    0.0000 H       1  UNL1        0.0358
     40 H           4.8631    0.2803    0.0000 H       1  UNL1        0.0358
     41 H          10.1510   -1.3274    0.0000 H       1  UNL1        0.0357
     42 H          10.3198   -0.5484    0.0000 H       1  UNL1        0.0357
     43 H           2.8521    0.5944    0.0000 H       1  UNL1        0.0575
     44 H           8.4933   -1.4467    0.0000 H       1  UNL1        0.0575
     45 H          11.5549    1.1472    0.0000 H       1  UNL1        0.2921
     46 H           2.6549    3.0218    0.0000 H       1  UNL1        0.0660
     47 H           1.7791    3.0635    0.0000 H       1  UNL1        0.0660
     48 H           1.7373    2.1877    0.0000 H       1  UNL1        0.0660
     49 H           1.8636   -0.4312    0.0000 H       1  UNL1        0.0274
     50 H           1.3952   -1.1724    0.0000 H       1  UNL1        0.0274
     51 H           2.1364   -1.6408    0.0000 H       1  UNL1        0.0274
     52 H           3.1982   -1.9713    0.0000 H       1  UNL1        0.0274
     53 H           4.0744   -2.0063    0.0000 H       1  UNL1        0.0274
     54 H           4.1094   -1.1302    0.0000 H       1  UNL1        0.0274
     55 H           8.2734   -2.8541    0.0000 H       1  UNL1        0.0274
     56 H           8.3160   -3.7298    0.0000 H       1  UNL1        0.0274
     57 H           9.1917   -3.6873    0.0000 H       1  UNL1        0.0274
     58 H          10.2507   -3.3478    0.0000 H       1  UNL1        0.0274
     59 H          10.9879   -2.8731    0.0000 H       1  UNL1        0.0274
     60 H          10.5132   -2.1359    0.0000 H       1  UNL1        0.0274
@<TRIPOS>BOND
     1     1     6    1
     2     1    10    1
     3     2     8    1
     4     2    11    1
     5     3    15    1
     6     3    25    1
     7     4    20    1
     8     4    45    1
     9     5     6    1
    10     5     7    1
    11     5     8    1
    12     5    31    1
    13     6     9    1
    14     6    32    1
    15     7    10   ar
    16     7    13   ar
    17     8    33    1
    18     8    34    1
    19     9    11   ar
    20     9    14   ar
    21    10    12   ar
    22    11    17   ar
    23    12    15   ar
    24    12    19    1
    25    13    18   ar
    26    13    35    1
    27    14    16   ar
    28    14    36    1
    29    15    18   ar
    30    16    20   ar
    31    16    21    1
    32    17    20   ar
    33    17    37    1
    34    18    38    1
    35    19    22    1
    36    19    39    1
    37    19    40    1
    38    21    23    1
    39    21    41    1
    40    21    42    1
    41    22    24    2
    42    22    43    1
    43    23    26    2
    44    23    44    1
    45    24    27    1
    46    24    28    1
    47    25    46    1
    48    25    47    1
    49    25    48    1
    50    26    29    1
    51    26    30    1
    52    27    49    1
    53    27    50    1
    54    27    51    1
    55    28    52    1
    56    28    53    1
    57    28    54    1
    58    29    55    1
    59    29    56    1
    60    29    57    1
    61    30    58    1
    62    30    59    1
    63    30    60    1
