@<TRIPOS>MOLECULE
IMPHY000619
 27 27 0 0 0
SMALL
GASTEIGER

@<TRIPOS>ATOM
      1 O           2.0000   -2.1900    0.0000 O.3     1  UNL1       -0.3907
      2 C           2.8660    1.3100    0.0000 C.3     1  UNL1       -0.0167
      3 C           2.0000    0.8100    0.0000 C.3     1  UNL1       -0.0425
      4 C           3.7320    0.8100    0.0000 C.3     1  UNL1       -0.0279
      5 C           2.0000   -0.1900    0.0000 C.3     1  UNL1       -0.0291
      6 C           2.8660   -0.6900    0.0000 C.2     1  UNL1       -0.0484
      7 C           3.7320   -0.1900    0.0000 C.2     1  UNL1       -0.0821
      8 C           2.8660    2.3100    0.0000 C.2     1  UNL1       -0.0763
      9 C           2.8660   -1.6900    0.0000 C.3     1  UNL1        0.0653
     10 C           3.7320    2.8100    0.0000 C.3     1  UNL1       -0.0438
     11 C           2.0000    2.8100    0.0000 C.2     1  UNL1       -0.0994
     12 H           3.6022    1.7350    0.0000 H       1  UNL1        0.0348
     13 H           1.7880    1.3926    0.0000 H       1  UNL1        0.0274
     14 H           1.3894    0.7023    0.0000 H       1  UNL1        0.0274
     15 H           4.3426    0.7023    0.0000 H       1  UNL1        0.0313
     16 H           3.9441    1.3926    0.0000 H       1  UNL1        0.0313
     17 H           1.3894   -0.0823    0.0000 H       1  UNL1        0.0311
     18 H           1.7880   -0.7726    0.0000 H       1  UNL1        0.0311
     19 H           4.2690   -0.5000    0.0000 H       1  UNL1        0.0573
     20 H           3.0781   -2.2726    0.0000 H       1  UNL1        0.0604
     21 H           3.4766   -1.5823    0.0000 H       1  UNL1        0.0604
     22 H           4.0420    2.2731    0.0000 H       1  UNL1        0.0274
     23 H           4.2690    3.1200    0.0000 H       1  UNL1        0.0274
     24 H           3.4220    3.3469    0.0000 H       1  UNL1        0.0274
     25 H           2.0000    3.4300    0.0000 H       1  UNL1        0.0534
     26 H           1.4631    2.5000    0.0000 H       1  UNL1        0.0534
     27 H           2.0000   -2.8100    0.0000 H       1  UNL1        0.2098
@<TRIPOS>BOND
     1     1     9    1
     2     1    27    1
     3     2     3    1
     4     2     4    1
     5     2     8    1
     6     2    12    1
     7     3     5    1
     8     3    13    1
     9     3    14    1
    10     4     7    1
    11     4    15    1
    12     4    16    1
    13     5     6    1
    14     5    17    1
    15     5    18    1
    16     6     7    2
    17     6     9    1
    18     7    19    1
    19     8    10    1
    20     8    11    2
    21     9    20    1
    22     9    21    1
    23    10    22    1
    24    10    23    1
    25    10    24    1
    26    11    25    1
    27    11    26    1
