@<TRIPOS>MOLECULE
IMPHY002315
 53 56 0 0 0
SMALL
GASTEIGER

@<TRIPOS>ATOM
      1 O           7.5692    2.6118    0.0000 O.3     1  UNL1       -0.3942
      2 C           3.8778   -0.7387    0.0000 C.3     1  UNL1       -0.0251
      3 C           4.7853   -0.2274    0.0000 C.3     1  UNL1       -0.0262
      4 C           5.6538   -0.7230    0.0000 C.3     1  UNL1       -0.0070
      5 C           3.8750   -1.7804    0.0000 C.3     1  UNL1       -0.0302
      6 C           5.6293    0.4583    0.0000 C.3     1  UNL1       -0.0324
      7 C           6.3054    1.4274    0.0000 C.3     1  UNL1        0.0127
      8 C           5.6751   -1.7644    0.0000 C.3     1  UNL1       -0.0433
      9 C           2.9423   -2.3348    0.0000 C.3     1  UNL1       -0.0315
     10 C           4.7797   -2.2967    0.0000 C.3     1  UNL1       -0.0484
     11 C           4.6313    0.7607    0.0000 C.3     1  UNL1       -0.0481
     12 C           2.9482   -0.1793    0.0000 C.3     1  UNL1       -0.0471
     13 C           5.3078    1.4972    0.0000 C.3     1  UNL1       -0.0415
     14 C           6.5828   -0.3531    0.0000 C.2     1  UNL1       -0.0808
     15 C           2.0000   -1.7969    0.0000 C.3     1  UNL1       -0.0476
     16 C           3.5384    0.2019    0.0000 C.3     1  UNL1       -0.0590
     17 C           2.0029   -0.7120    0.0000 C.3     1  UNL1       -0.0521
     18 C           6.8728    0.6040    0.0000 C.2     1  UNL1       -0.0790
     19 C           6.5954    2.3844    0.0000 C.3     1  UNL1        0.0533
     20 C           2.4500   -3.2052    0.0000 C.3     1  UNL1       -0.0595
     21 C           3.4500   -3.1963    0.0000 C.3     1  UNL1       -0.0595
     22 H           4.0471    0.1940    0.0000 H       1  UNL1        0.0314
     23 H           3.8825   -2.6303    0.0000 H       1  UNL1        0.0311
     24 H           5.2551    0.9526    0.0000 H       1  UNL1        0.0283
     25 H           5.0436    0.2549    0.0000 H       1  UNL1        0.0283
     26 H           5.8960   -2.3438    0.0000 H       1  UNL1        0.0274
     27 H           6.2836   -1.6459    0.0000 H       1  UNL1        0.0274
     28 H           4.3847   -2.7746    0.0000 H       1  UNL1        0.0269
     29 H           5.1830   -2.7676    0.0000 H       1  UNL1        0.0269
     30 H           4.2795    1.2712    0.0000 H       1  UNL1        0.0269
     31 H           4.0553    0.5313    0.0000 H       1  UNL1        0.0269
     32 H           3.3541    0.2894    0.0000 H       1  UNL1        0.0271
     33 H           2.5559    0.3008    0.0000 H       1  UNL1        0.0271
     34 H           5.4876    2.0905    0.0000 H       1  UNL1        0.0274
     35 H           4.7694    1.8045    0.0000 H       1  UNL1        0.0274
     36 H           7.0394   -0.7725    0.0000 H       1  UNL1        0.0575
     37 H           1.3894   -1.6892    0.0000 H       1  UNL1        0.0271
     38 H           1.7894   -2.3801    0.0000 H       1  UNL1        0.0271
     39 H           4.1216    0.4123    0.0000 H       1  UNL1        0.0235
     40 H           3.3279    0.7851    0.0000 H       1  UNL1        0.0235
     41 H           2.9552   -0.0086    0.0000 H       1  UNL1        0.0235
     42 H           1.7955   -0.1277    0.0000 H       1  UNL1        0.0266
     43 H           1.3918   -0.8164    0.0000 H       1  UNL1        0.0266
     44 H           7.4854    0.6994    0.0000 H       1  UNL1        0.0575
     45 H           6.5614    3.0035    0.0000 H       1  UNL1        0.0566
     46 H           5.9798    2.4584    0.0000 H       1  UNL1        0.0566
     47 H           2.9158   -3.5110    0.0000 H       1  UNL1        0.0235
     48 H           3.7647   -3.7305    0.0000 H       1  UNL1        0.0235
     49 H           1.9104   -2.8999    0.0000 H       1  UNL1        0.0235
     50 H           3.9841   -2.8816    0.0000 H       1  UNL1        0.0235
     51 H           2.1448   -3.7448    0.0000 H       1  UNL1        0.0235
     52 H           2.9897   -3.5104    0.0000 H       1  UNL1        0.0235
     53 H           7.7490    3.2052    0.0000 H       1  UNL1        0.2094
@<TRIPOS>BOND
     1     1    19    1
     2     1    53    1
     3     2     3    1
     4     2     5    1
     5     2    12    1
     6     2    16    1
     7     3     4    1
     8     3    11    1
     9     3    22    1
    10     4     6    1
    11     4     8    1
    12     4    14    1
    13     5     9    1
    14     5    10    1
    15     5    23    1
    16     6     7    1
    17     6    24    1
    18     6    25    1
    19     7    13    1
    20     7    18    1
    21     7    19    1
    22     8    10    1
    23     8    26    1
    24     8    27    1
    25     9    15    1
    26     9    20    1
    27     9    21    1
    28    10    28    1
    29    10    29    1
    30    11    13    1
    31    11    30    1
    32    11    31    1
    33    12    17    1
    34    12    32    1
    35    12    33    1
    36    13    34    1
    37    13    35    1
    38    14    18    2
    39    14    36    1
    40    15    17    1
    41    15    37    1
    42    15    38    1
    43    16    39    1
    44    16    40    1
    45    16    41    1
    46    17    42    1
    47    17    43    1
    48    18    44    1
    49    19    45    1
    50    19    46    1
    51    20    49    1
    52    20    51    1
    53    20    52    1
    54    21    47    1
    55    21    48    1
    56    21    50    1
