@<TRIPOS>MOLECULE
IMPHY011668
 39 40 0 0 0
SMALL
GASTEIGER

@<TRIPOS>ATOM
      1 C           6.6532    0.9753    0.0000 C.3     1  UNL1       -0.0314
      2 C           5.2542    0.4665    0.0000 C.3     1  UNL1       -0.0079
      3 C           6.3944    1.9412    0.0000 C.3     1  UNL1       -0.0193
      4 C           7.1310    2.9238    0.0000 C.3     1  UNL1       -0.0429
      5 C           8.0259    0.3833    0.0000 C.3     1  UNL1       -0.0489
      6 C           4.9954    1.4324    0.0000 C.2     1  UNL1       -0.0673
      7 C           8.3679    1.3230    0.0000 C.3     1  UNL1       -0.0462
      8 C           4.3407    0.0597    0.0000 C.3     1  UNL1       -0.0402
      9 C           5.3588   -0.5280    0.0000 C.3     1  UNL1       -0.0556
     10 C           4.1294    1.9324    0.0000 C.2     1  UNL1       -0.0987
     11 C           4.2362   -0.9348    0.0000 C.3     1  UNL1       -0.0337
     12 C           3.3226   -1.3415    0.0000 C.2     1  UNL1       -0.0853
     13 C           3.2181   -2.3360    0.0000 C.2     1  UNL1       -0.0796
     14 C           2.3045   -2.7428    0.0000 C.3     1  UNL1       -0.0440
     15 C           4.0271   -2.9238    0.0000 C.3     1  UNL1       -0.0440
     16 H           6.8732    0.1543    0.0000 H       1  UNL1        0.0309
     17 H           6.1743    2.7622    0.0000 H       1  UNL1        0.0346
     18 H           6.8132    3.4562    0.0000 H       1  UNL1        0.0274
     19 H           7.7441    3.0158    0.0000 H       1  UNL1        0.0274
     20 H           8.6043    0.1600    0.0000 H       1  UNL1        0.0268
     21 H           7.7914   -0.1907    0.0000 H       1  UNL1        0.0268
     22 H           8.5622    1.9117    0.0000 H       1  UNL1        0.0271
     23 H           8.9536    1.1198    0.0000 H       1  UNL1        0.0271
     24 H           3.7222    0.0165    0.0000 H       1  UNL1        0.0277
     25 H           4.1907    0.6613    0.0000 H       1  UNL1        0.0277
     26 H           5.9754   -0.4632    0.0000 H       1  UNL1        0.0238
     27 H           5.4236   -1.1446    0.0000 H       1  UNL1        0.0238
     28 H           4.7422   -0.5929    0.0000 H       1  UNL1        0.0238
     29 H           3.5924    1.6224    0.0000 H       1  UNL1        0.0535
     30 H           4.1294    2.5524    0.0000 H       1  UNL1        0.0535
     31 H           4.8546   -0.8915    0.0000 H       1  UNL1        0.0308
     32 H           4.3862   -1.5364    0.0000 H       1  UNL1        0.0308
     33 H           2.8210   -0.9771    0.0000 H       1  UNL1        0.0571
     34 H           2.5567   -3.3092    0.0000 H       1  UNL1        0.0274
     35 H           1.7381   -2.9950    0.0000 H       1  UNL1        0.0274
     36 H           2.0524   -2.1764    0.0000 H       1  UNL1        0.0274
     37 H           4.3915   -2.4222    0.0000 H       1  UNL1        0.0274
     38 H           4.5287   -3.2883    0.0000 H       1  UNL1        0.0274
     39 H           3.6627   -3.4254    0.0000 H       1  UNL1        0.0274
@<TRIPOS>BOND
     1     1     2    1
     2     1     4    1
     3     1     5    1
     4     1    16    1
     5     2     6    1
     6     2     8    1
     7     2     9    1
     8     3     4    1
     9     3     6    1
    10     3     7    1
    11     3    17    1
    12     4    18    1
    13     4    19    1
    14     5     7    1
    15     5    20    1
    16     5    21    1
    17     6    10    2
    18     7    22    1
    19     7    23    1
    20     8    11    1
    21     8    24    1
    22     8    25    1
    23     9    26    1
    24     9    27    1
    25     9    28    1
    26    10    29    1
    27    10    30    1
    28    11    12    1
    29    11    31    1
    30    11    32    1
    31    12    13    2
    32    12    33    1
    33    13    14    1
    34    13    15    1
    35    14    34    1
    36    14    35    1
    37    14    36    1
    38    15    37    1
    39    15    38    1
    40    15    39    1
