@<TRIPOS>MOLECULE
IMPHY017330
 34 34 0 0 0
SMALL
GASTEIGER

@<TRIPOS>ATOM
      1 O           3.7320    2.0000    0.0000 O.3     1  UNL1       -0.4645
      2 O           5.4641    2.0000    0.0000 O.2     1  UNL1       -0.2512
      3 C           2.8660   -0.5000    0.0000 C.3     1  UNL1       -0.0317
      4 C           2.8660    0.5000    0.0000 C.3     1  UNL1       -0.0064
      5 C           2.0000   -1.0000    0.0000 C.3     1  UNL1       -0.0459
      6 C           3.7320   -1.0000    0.0000 C.3     1  UNL1       -0.0313
      7 C           2.0000   -2.0000    0.0000 C.3     1  UNL1       -0.0317
      8 C           2.8660   -2.5000    0.0000 C.2     1  UNL1       -0.0765
      9 C           3.7320   -2.0000    0.0000 C.2     1  UNL1       -0.0848
     10 C           3.7320    1.0000    0.0000 C.3     1  UNL1        0.0953
     11 C           2.0000    1.0000    0.0000 C.3     1  UNL1       -0.0591
     12 C           2.8660   -3.5000    0.0000 C.3     1  UNL1       -0.0438
     13 C           4.5981    2.5000    0.0000 C.2     1  UNL1        0.3040
     14 C           4.5981    3.5000    0.0000 C.3     1  UNL1        0.0332
     15 H           3.6022   -0.0750    0.0000 H       1  UNL1        0.0307
     16 H           2.8660    1.3500    0.0000 H       1  UNL1        0.0334
     17 H           1.7880   -0.4174    0.0000 H       1  UNL1        0.0271
     18 H           1.3894   -1.1077    0.0000 H       1  UNL1        0.0271
     19 H           4.3426   -1.1077    0.0000 H       1  UNL1        0.0310
     20 H           3.9441   -0.4174    0.0000 H       1  UNL1        0.0310
     21 H           1.3894   -1.8923    0.0000 H       1  UNL1        0.0310
     22 H           1.7880   -2.5826    0.0000 H       1  UNL1        0.0310
     23 H           4.2690   -2.3100    0.0000 H       1  UNL1        0.0572
     24 H           3.9441    0.4174    0.0000 H       1  UNL1        0.0700
     25 H           4.3426    1.1077    0.0000 H       1  UNL1        0.0700
     26 H           2.3100    1.5369    0.0000 H       1  UNL1        0.0234
     27 H           1.4631    1.3100    0.0000 H       1  UNL1        0.0234
     28 H           1.6900    0.4631    0.0000 H       1  UNL1        0.0234
     29 H           2.2460   -3.5000    0.0000 H       1  UNL1        0.0274
     30 H           2.8660   -4.1200    0.0000 H       1  UNL1        0.0274
     31 H           3.4860   -3.5000    0.0000 H       1  UNL1        0.0274
     32 H           5.2181    3.5000    0.0000 H       1  UNL1        0.0342
     33 H           4.5981    4.1200    0.0000 H       1  UNL1        0.0342
     34 H           3.9781    3.5000    0.0000 H       1  UNL1        0.0342
@<TRIPOS>BOND
     1     1    10    1
     2     1    13    1
     3     2    13    2
     4     3     4    1
     5     3     5    1
     6     3     6    1
     7     3    15    1
     8     4    10    1
     9     4    11    1
    10     4    16    1
    11     5     7    1
    12     5    17    1
    13     5    18    1
    14     6     9    1
    15     6    19    1
    16     6    20    1
    17     7     8    1
    18     7    21    1
    19     7    22    1
    20     8     9    2
    21     8    12    1
    22     9    23    1
    23    10    24    1
    24    10    25    1
    25    11    26    1
    26    11    27    1
    27    11    28    1
    28    12    29    1
    29    12    30    1
    30    12    31    1
    31    13    14    1
    32    14    32    1
    33    14    33    1
    34    14    34    1
