@<TRIPOS>MOLECULE
IMPHY002948
 34 36 0 0 0
SMALL
GASTEIGER

@<TRIPOS>ATOM
      1 O           7.3424   -1.0829    0.0000 O.2     1  UNL1       -0.4622
      2 O           3.7702   -0.8530    0.0000 O.2     1  UNL1       -0.4214
      3 O           6.3961    2.6123    0.0000 O.3     1  UNL1       -0.3851
      4 O           2.0000   -0.8635    0.0000 O.2     1  UNL1       -0.2452
      5 C           6.3961    1.6123    0.0000 C.3     1  UNL1        0.0789
      6 C           5.5301   -0.8877    0.0000 C.ar    1  UNL1        0.0605
      7 C           6.3961   -1.3877    0.0000 C.ar    1  UNL1        0.1454
      8 C           4.6641   -1.3877    0.0000 C.ar    1  UNL1        0.1497
      9 C           6.3961   -2.3877    0.0000 C.ar    1  UNL1        0.0215
     10 C           4.6641   -2.3877    0.0000 C.ar    1  UNL1        0.0190
     11 C           6.3961    0.6123    0.0000 C.2     1  UNL1       -0.0526
     12 C           5.5301    0.1123    0.0000 C.2     1  UNL1       -0.0488
     13 C           5.5301   -2.8877    0.0000 C.ar    1  UNL1       -0.0403
     14 C           7.3962    1.6123    0.0000 C.3     1  UNL1       -0.0327
     15 C           5.3961    1.6123    0.0000 C.3     1  UNL1       -0.0327
     16 C           7.3424   -2.6924    0.0000 C.ar    1  UNL1       -0.0161
     17 C           3.7702   -2.9223    0.0000 C.ar    1  UNL1       -0.0443
     18 C           7.9260   -1.8877    0.0000 C.ar    1  UNL1        0.0932
     19 C           2.8641   -2.4085    0.0000 C.ar    1  UNL1        0.0236
     20 C           2.8641   -1.3668    0.0000 C.ar    1  UNL1        0.3372
     21 H           6.9331    0.3023    0.0000 H       1  UNL1        0.0600
     22 H           4.9932    0.4223    0.0000 H       1  UNL1        0.0624
     23 H           5.5301   -3.5077    0.0000 H       1  UNL1        0.0632
     24 H           7.3962    0.9923    0.0000 H       1  UNL1        0.0260
     25 H           8.0162    1.6123    0.0000 H       1  UNL1        0.0260
     26 H           5.3961    2.2323    0.0000 H       1  UNL1        0.0260
     27 H           4.7762    1.6123    0.0000 H       1  UNL1        0.0260
     28 H           5.3961    0.9923    0.0000 H       1  UNL1        0.0260
     29 H           7.3962    2.2323    0.0000 H       1  UNL1        0.0260
     30 H           7.5350   -3.2817    0.0000 H       1  UNL1        0.0655
     31 H           3.7773   -3.5423    0.0000 H       1  UNL1        0.0627
     32 H           8.5460   -1.8877    0.0000 H       1  UNL1        0.1030
     33 H           6.9331    2.9223    0.0000 H       1  UNL1        0.2106
     34 H           2.3284   -2.7205    0.0000 H       1  UNL1        0.0689
@<TRIPOS>BOND
     1     1     7   ar
     2     1    18   ar
     3     2     8   ar
     4     2    20   ar
     5     3     5    1
     6     3    33    1
     7     4    20    2
     8     5    11    1
     9     5    14    1
    10     5    15    1
    11     6     7   ar
    12     6     8   ar
    13     6    12    1
    14     7     9   ar
    15     8    10   ar
    16     9    13   ar
    17     9    16   ar
    18    10    13   ar
    19    10    17   ar
    20    11    12    2
    21    11    21    1
    22    12    22    1
    23    13    23    1
    24    14    24    1
    25    14    25    1
    26    14    29    1
    27    15    26    1
    28    15    27    1
    29    15    28    1
    30    16    18   ar
    31    16    30    1
    32    17    19   ar
    33    17    31    1
    34    18    32    1
    35    19    20   ar
    36    19    34    1
