@<TRIPOS>MOLECULE
IMPHY009082
 60 64 0 0 0
SMALL
GASTEIGER

@<TRIPOS>ATOM
      1 O           3.9632    2.7333    0.0000 O.3     1  UNL1       -0.4912
      2 O           6.1687   -0.1609    0.0000 O.2     1  UNL1       -0.4541
      3 O           2.5576   -0.4144    0.0000 O.3     1  UNL1       -0.5058
      4 O           3.5688   -1.9489    0.0000 O.2     1  UNL1       -0.2869
      5 O           8.2508   -4.0809    0.0000 O.3     1  UNL1       -0.4914
      6 O           9.8902   -2.9352    0.0000 O.3     1  UNL1       -0.5033
      7 C           6.2102    2.7333    0.0000 C.3     1  UNL1       -0.0258
      8 C           7.2424    2.8727    0.0000 C.3     1  UNL1       -0.0314
      9 C           5.5867    3.5152    0.0000 C.3     1  UNL1       -0.0032
     10 C           7.6304    3.8394    0.0000 C.3     1  UNL1       -0.0476
     11 C           5.9522    4.4906    0.0000 C.3     1  UNL1       -0.0468
     12 C           6.9810    4.6537    0.0000 C.3     1  UNL1       -0.0522
     13 C           5.9876    1.7584    0.0000 C.3     1  UNL1       -0.0170
     14 C           4.5867    3.5152    0.0000 C.3     1  UNL1        0.0927
     15 C           8.1690    2.4966    0.0000 C.3     1  UNL1       -0.0595
     16 C           7.3800    1.8822    0.0000 C.3     1  UNL1       -0.0595
     17 C           5.0867    1.3245    0.0000 C.ar    1  UNL1        0.0377
     18 C           4.1857    1.7584    0.0000 C.ar    1  UNL1        0.1307
     19 C           5.1805    0.2871    0.0000 C.ar    1  UNL1        0.1494
     20 C           3.3161    1.1850    0.0000 C.ar    1  UNL1        0.0228
     21 C           4.3244   -0.3063    0.0000 C.ar    1  UNL1        0.1057
     22 C           3.3860    0.1457    0.0000 C.ar    1  UNL1        0.1347
     23 C           4.3972   -1.3888    0.0000 C.ar    1  UNL1        0.1966
     24 C           6.2664   -1.2415    0.0000 C.ar    1  UNL1        0.1394
     25 C           5.3747   -1.8596    0.0000 C.ar    1  UNL1        0.0288
     26 C           7.1724   -1.6649    0.0000 C.ar    1  UNL1        0.0211
     27 C           7.2586   -2.6612    0.0000 C.ar    1  UNL1       -0.0057
     28 C           7.9920   -1.0921    0.0000 C.ar    1  UNL1       -0.0474
     29 C           8.1646   -3.0846    0.0000 C.ar    1  UNL1        0.1619
     30 C           8.8980   -1.5155    0.0000 C.ar    1  UNL1       -0.0159
     31 C           8.9842   -2.5118    0.0000 C.ar    1  UNL1        0.1585
     32 C           7.4312   -4.6537    0.0000 C.3     1  UNL1        0.0790
     33 H           6.6284    2.2756    0.0000 H       1  UNL1        0.0313
     34 H           5.2335    4.0247    0.0000 H       1  UNL1        0.0336
     35 H           8.1578    3.5134    0.0000 H       1  UNL1        0.0271
     36 H           8.0419    4.3032    0.0000 H       1  UNL1        0.0271
     37 H           5.9613    5.1105    0.0000 H       1  UNL1        0.0269
     38 H           5.3430    4.6056    0.0000 H       1  UNL1        0.0269
     39 H           7.5247    4.9516    0.0000 H       1  UNL1        0.0266
     40 H           6.7805    5.2404    0.0000 H       1  UNL1        0.0266
     41 H           6.1256    1.1540    0.0000 H       1  UNL1        0.0318
     42 H           6.6076    1.7584    0.0000 H       1  UNL1        0.0318
     43 H           4.7246    4.1196    0.0000 H       1  UNL1        0.0699
     44 H           4.0281    3.7842    0.0000 H       1  UNL1        0.0699
     45 H           6.7659    1.7969    0.0000 H       1  UNL1        0.0235
     46 H           7.4654    1.2681    0.0000 H       1  UNL1        0.0235
     47 H           7.9941    1.9675    0.0000 H       1  UNL1        0.0235
     48 H           7.9359    1.9221    0.0000 H       1  UNL1        0.0235
     49 H           8.7435    2.2634    0.0000 H       1  UNL1        0.0235
     50 H           8.4022    3.0711    0.0000 H       1  UNL1        0.0235
     51 H           2.7607    1.4604    0.0000 H       1  UNL1        0.0691
     52 H           5.4234   -2.4776    0.0000 H       1  UNL1        0.0693
     53 H           2.0000   -0.1433    0.0000 H       1  UNL1        0.2922
     54 H           6.7504   -3.0164    0.0000 H       1  UNL1        0.0662
     55 H           7.9386   -0.4744    0.0000 H       1  UNL1        0.0626
     56 H           9.4062   -1.1604    0.0000 H       1  UNL1        0.0655
     57 H          10.3984   -2.5801    0.0000 H       1  UNL1        0.2923
     58 H           7.0760   -4.1455    0.0000 H       1  UNL1        0.0660
     59 H           6.9230   -5.0089    0.0000 H       1  UNL1        0.0660
     60 H           7.7863   -5.1619    0.0000 H       1  UNL1        0.0660
@<TRIPOS>BOND
     1     1    14    1
     2     1    18    1
     3     2    19   ar
     4     2    24   ar
     5     3    22    1
     6     3    53    1
     7     4    23    2
     8     5    29    1
     9     5    32    1
    10     6    31    1
    11     6    57    1
    12     7     8    1
    13     7     9    1
    14     7    13    1
    15     7    33    1
    16     8    10    1
    17     8    15    1
    18     8    16    1
    19     9    11    1
    20     9    14    1
    21     9    34    1
    22    10    12    1
    23    10    35    1
    24    10    36    1
    25    11    12    1
    26    11    37    1
    27    11    38    1
    28    12    39    1
    29    12    40    1
    30    13    17    1
    31    13    41    1
    32    13    42    1
    33    14    43    1
    34    14    44    1
    35    15    48    1
    36    15    49    1
    37    15    50    1
    38    16    45    1
    39    16    46    1
    40    16    47    1
    41    17    18   ar
    42    17    19   ar
    43    18    20   ar
    44    19    21   ar
    45    20    22   ar
    46    20    51    1
    47    21    22   ar
    48    21    23   ar
    49    23    25   ar
    50    24    25   ar
    51    24    26    1
    52    25    52    1
    53    26    27   ar
    54    26    28   ar
    55    27    29   ar
    56    27    54    1
    57    28    30   ar
    58    28    55    1
    59    29    31   ar
    60    30    31   ar
    61    30    56    1
    62    32    58    1
    63    32    59    1
    64    32    60    1
