@<TRIPOS>MOLECULE
IMPHY000115
 31 33 0 0 0
SMALL
GASTEIGER

@<TRIPOS>ATOM
      1 O           7.2901    0.8576    0.0000 O.3     1  UNL1       -0.4858
      2 O           3.7702    0.8576    0.0000 O.2     1  UNL1       -0.4220
      3 O           2.0000    0.8471    0.0000 O.2     1  UNL1       -0.2452
      4 C           8.1962    0.3438    0.0000 C.3     1  UNL1        0.1054
      5 C           8.1962   -0.6979    0.0000 C.3     1  UNL1       -0.0093
      6 C           7.2901   -1.2117    0.0000 C.3     1  UNL1       -0.0206
      7 C           6.3961   -0.6770    0.0000 C.ar    1  UNL1       -0.0048
      8 C           6.3961    0.3230    0.0000 C.ar    1  UNL1        0.1280
      9 C           9.1962    0.3476    0.0000 C.3     1  UNL1       -0.0252
     10 C           8.6928    1.2117    0.0000 C.3     1  UNL1       -0.0252
     11 C           5.5301   -1.1770    0.0000 C.ar    1  UNL1       -0.0444
     12 C           5.5301    0.8230    0.0000 C.ar    1  UNL1        0.0234
     13 C           4.6641   -0.6770    0.0000 C.ar    1  UNL1        0.0181
     14 C           4.6641    0.3230    0.0000 C.ar    1  UNL1        0.1425
     15 C           3.7702   -1.2117    0.0000 C.ar    1  UNL1       -0.0443
     16 C           2.8641   -0.6979    0.0000 C.ar    1  UNL1        0.0236
     17 C           2.8641    0.3438    0.0000 C.ar    1  UNL1        0.3372
     18 H           8.4052   -1.2816    0.0000 H       1  UNL1        0.0307
     19 H           8.8070   -0.5918    0.0000 H       1  UNL1        0.0307
     20 H           6.8855   -1.6815    0.0000 H       1  UNL1        0.0316
     21 H           7.6837   -1.6907    0.0000 H       1  UNL1        0.0316
     22 H           9.1985   -0.2724    0.0000 H       1  UNL1        0.0268
     23 H           9.8162    0.3500    0.0000 H       1  UNL1        0.0268
     24 H           9.1938    0.9676    0.0000 H       1  UNL1        0.0268
     25 H           9.2310    0.9038    0.0000 H       1  UNL1        0.0268
     26 H           9.0008    1.7498    0.0000 H       1  UNL1        0.0268
     27 H           8.1547    1.5196    0.0000 H       1  UNL1        0.0268
     28 H           5.5301   -1.7970    0.0000 H       1  UNL1        0.0628
     29 H           5.5301    1.4430    0.0000 H       1  UNL1        0.0691
     30 H           3.7773   -1.8317    0.0000 H       1  UNL1        0.0627
     31 H           2.3284   -1.0099    0.0000 H       1  UNL1        0.0689
@<TRIPOS>BOND
     1     1     4    1
     2     1     8    1
     3     2    14   ar
     4     2    17   ar
     5     3    17    2
     6     4     5    1
     7     4     9    1
     8     4    10    1
     9     5     6    1
    10     5    18    1
    11     5    19    1
    12     6     7    1
    13     6    20    1
    14     6    21    1
    15     7     8   ar
    16     7    11   ar
    17     8    12   ar
    18     9    22    1
    19     9    23    1
    20     9    24    1
    21    10    25    1
    22    10    26    1
    23    10    27    1
    24    11    13   ar
    25    11    28    1
    26    12    14   ar
    27    12    29    1
    28    13    14   ar
    29    13    15   ar
    30    15    16   ar
    31    15    30    1
    32    16    17   ar
    33    16    31    1
