@<TRIPOS>MOLECULE
IMPHY007167
 36 35 0 0 0
SMALL
GASTEIGER

@<TRIPOS>ATOM
      1 O           5.4641   -2.2500    0.0000 O.2     1  UNL1       -0.2977
      2 C           5.4641    0.7500    0.0000 C.3     1  UNL1       -0.0199
      3 C           6.3301    1.2500    0.0000 C.3     1  UNL1       -0.0404
      4 C           5.4641   -0.2500    0.0000 C.3     1  UNL1       -0.0399
      5 C           6.3301   -0.7500    0.0000 C.3     1  UNL1        0.0061
      6 C           7.1962    0.7500    0.0000 C.3     1  UNL1       -0.0621
      7 C           6.3301    2.2500    0.0000 C.3     1  UNL1       -0.0621
      8 C           4.5981    1.2500    0.0000 C.2     1  UNL1       -0.0804
      9 C           6.3301   -1.7500    0.0000 C.2     1  UNL1        0.1303
     10 C           3.7320    0.7500    0.0000 C.2     1  UNL1       -0.0630
     11 C           2.8660    1.2500    0.0000 C.2     1  UNL1       -0.0578
     12 C           7.1962   -2.2500    0.0000 C.3     1  UNL1       -0.0061
     13 C           2.0000    0.7500    0.0000 C.3     1  UNL1       -0.0403
     14 C           2.8660    2.2500    0.0000 C.2     1  UNL1       -0.0958
     15 H           6.0010    1.0600    0.0000 H       1  UNL1        0.0346
     16 H           6.8671    1.5600    0.0000 H       1  UNL1        0.0301
     17 H           4.8535   -0.1423    0.0000 H       1  UNL1        0.0275
     18 H           5.2520   -0.8326    0.0000 H       1  UNL1        0.0275
     19 H           6.9407   -0.8577    0.0000 H       1  UNL1        0.0342
     20 H           6.5422   -0.1674    0.0000 H       1  UNL1        0.0342
     21 H           6.8862    0.2131    0.0000 H       1  UNL1        0.0233
     22 H           7.7331    0.4400    0.0000 H       1  UNL1        0.0233
     23 H           7.5062    1.2869    0.0000 H       1  UNL1        0.0233
     24 H           6.9501    2.2500    0.0000 H       1  UNL1        0.0233
     25 H           6.3301    2.8700    0.0000 H       1  UNL1        0.0233
     26 H           5.7101    2.2500    0.0000 H       1  UNL1        0.0233
     27 H           4.5981    1.8700    0.0000 H       1  UNL1        0.0575
     28 H           3.7320    0.1300    0.0000 H       1  UNL1        0.0617
     29 H           6.8862   -2.7869    0.0000 H       1  UNL1        0.0306
     30 H           7.7331   -2.5600    0.0000 H       1  UNL1        0.0306
     31 H           7.5062   -1.7131    0.0000 H       1  UNL1        0.0306
     32 H           1.6900    1.2869    0.0000 H       1  UNL1        0.0277
     33 H           1.4631    0.4400    0.0000 H       1  UNL1        0.0277
     34 H           2.3100    0.2131    0.0000 H       1  UNL1        0.0277
     35 H           3.4030    2.5600    0.0000 H       1  UNL1        0.0537
     36 H           2.3291    2.5600    0.0000 H       1  UNL1        0.0537
@<TRIPOS>BOND
     1     1     9    2
     2     2     3    1
     3     2     4    1
     4     2     8    1
     5     2    15    1
     6     3     6    1
     7     3     7    1
     8     3    16    1
     9     4     5    1
    10     4    17    1
    11     4    18    1
    12     5     9    1
    13     5    19    1
    14     5    20    1
    15     6    21    1
    16     6    22    1
    17     6    23    1
    18     7    24    1
    19     7    25    1
    20     7    26    1
    21     8    10    2
    22     8    27    1
    23     9    12    1
    24    10    11    1
    25    10    28    1
    26    11    13    1
    27    11    14    2
    28    12    29    1
    29    12    30    1
    30    12    31    1
    31    13    32    1
    32    13    33    1
    33    13    34    1
    34    14    35    1
    35    14    36    1
