@<TRIPOS>MOLECULE
IMPHY000491
 10 11 0 0 0
SMALL
GASTEIGER
****
Created with ChemWriter - http://chemwriter.com
@<TRIPOS>ATOM
      1 C          -0.6265    0.9686    0.0000 C.3     1  UNL1        0.0000
      2 C          -1.3410    0.5561    0.0000 C.3     1  UNL1        0.0000
      3 C          -1.3410   -0.2689    0.0000 C.3     1  UNL1        0.0000
      4 C          -0.6265   -0.6814    0.0000 C.3     1  UNL1        0.0000
      5 C           0.0880   -0.2689    0.0000 C.3     1  UNL1        0.0000
      6 C           0.0880    0.5561    0.0000 C.3     1  UNL1        0.0000
      7 C          -0.6265    0.1436    0.0000 C.3     1  UNL1        0.0000
      8 C           0.8024    0.9686    0.0000 C.3     1  UNL1        0.0000
      9 C          -1.5545    1.3530    0.0000 C.3     1  UNL1        0.0000
     10 C          -2.1379    0.3426    0.0000 C.3     1  UNL1        0.0000
@<TRIPOS>BOND
     1     1     2    1
     2     1     6    1
     3     1     7    1
     4     2     3    1
     5     2     9    1
     6     2    10    1
     7     3     4    1
     8     3     7    1
     9     4     5    1
    10     5     6    1
    11     6     8    1
