@<TRIPOS>MOLECULE
IMPHY014564
 157 160 0 0 0
SMALL
GASTEIGER

@<TRIPOS>ATOM
      1 O          12.8542   -3.5590    0.0000 O.2     1  PRO1       -0.2735
      2 O          12.9965   -2.2043    0.0000 O.2     1  PRO1       -0.2738
      3 O          13.5973   -4.2281    0.0000 O.2     1  PRO1       -0.2737
      4 O          13.8626   -1.7043    0.0000 O.2     2  ALA2       -0.2738
      5 O          18.1447   -3.6612    0.0000 O.2     1  PRO1       -0.2741
      6 O          14.5484   -3.9191    0.0000 O.2     2  ALA2       -0.2738
      7 OD1        15.6188   -7.2136    0.0000 O.2     1  PRO1       -0.2760
      8 O          14.3312    5.2957    0.0000 O.2     3  GLY3       -0.2741
      9 OG         11.5991    4.7957    0.0000 O.3     4  SER4       -0.3927
     10 O          11.5991    7.7957    0.0000 O.2     4  SER4       -0.2737
     11 OG          8.8671    8.2957    0.0000 O.3     5  SER5       -0.3927
     12 O           8.8671    5.2957    0.0000 O.2     5  SER5       -0.2737
     13 O           6.1350    7.7957    0.0000 O.2     6  ASN6       -0.2737
     14 O           2.5369    6.7957    0.0000 O.3     7  VAL7       -0.4793
     15 OXT         3.4030    5.2957    0.0000 O.2     7  VAL7       -0.2489
     16 OD1         5.2690    5.2957    0.0000 O.2     6  ASN6       -0.2760
     17 N          11.1600   -3.1989    0.0000 N.am    1  PRO1       -0.2884
     18 N          12.1305   -0.7043    0.0000 N.am    2  ALA2       -0.3022
     19 N          12.4383   -5.5153    0.0000 N.am    1  PRO1       -0.3024
     20 N          15.0836   -5.5664    0.0000 N.am    1  PRO1       -0.3020
     21 N          18.5230   -1.6072    0.0000 N.3     1  PRO1       -0.3057
     22 N          16.0632    6.2957    0.0000 N.am    3  GLY3       -0.3052
     23 N          16.4505   -3.3010    0.0000 N.am    2  ALA2       -0.3030
     24 NE1        14.9374    2.4936    0.0000 N.ar    2  ALA2       -0.3604
     25 ND2        14.4599   -8.5008    0.0000 N.am    1  PRO1       -0.3293
     26 N          13.3312    6.7957    0.0000 N.am    4  SER4       -0.3008
     27 N          10.5991    6.2957    0.0000 N.am    5  SER5       -0.3005
     28 N           5.1350    6.2957    0.0000 N.am    7  VAL7       -0.3006
     29 N           7.8671    6.7957    0.0000 N.am    6  ASN6       -0.3019
     30 ND2         6.1350    3.7957    0.0000 N.am    6  ASN6       -0.3293
     31 CA         11.2645   -2.2043    0.0000 C.3     1  PRO1        0.1023
     32 CB         10.3509   -1.7976    0.0000 C.3     1  PRO1       -0.0243
     33 CG          9.6818   -2.5407    0.0000 C.3     1  PRO1       -0.0350
     34 CD         10.1818   -3.4068    0.0000 C.3     1  PRO1        0.0156
     35 C          11.9031   -3.8680    0.0000 C.2     1  PRO1        0.2365
     36 CA         11.6952   -4.8461    0.0000 C.3     1  PRO1        0.0999
     37 C          12.1305   -1.7043    0.0000 C.2     1  PRO1        0.2342
     38 CB         10.7441   -5.1552    0.0000 C.3     1  PRO1       -0.0236
     39 CG         10.5362   -6.1333    0.0000 C.3     1  PRO1       -0.0446
     40 CA         12.9965   -0.2043    0.0000 C.3     2  ALA2        0.1034
     41 CB         12.9965    0.7957    0.0000 C.3     2  ALA2        0.0013
     42 CD1         9.5852   -6.4423    0.0000 C.3     1  PRO1       -0.0626
     43 CD2        11.2794   -6.8024    0.0000 C.3     1  PRO1       -0.0626
     44 C          13.3894   -5.2062    0.0000 C.2     1  PRO1        0.2344
     45 CA         14.1325   -5.8754    0.0000 C.3     1  PRO1        0.1076
     46 C          13.8626   -0.7043    0.0000 C.2     2  ALA2        0.2341
     47 CG         13.8626    1.2957    0.0000 C.ar    2  ALA2       -0.0201
     48 CA         17.6094   -2.0139    0.0000 C.3     1  PRO1        0.0848
     49 CB         16.9403   -1.2707    0.0000 C.3     1  PRO1       -0.0279
     50 CG         17.4403   -0.4047    0.0000 C.3     1  PRO1       -0.0386
     51 CB         13.9246   -6.8535    0.0000 C.3     1  PRO1        0.0506
     52 CD         18.4185   -0.6126    0.0000 C.3     1  PRO1       -0.0034
     53 CD2        14.7704    0.8906    0.0000 C.ar    2  ALA2        0.0029
     54 CD1        13.9656    2.2844    0.0000 C.ar    2  ALA2        0.0060
     55 C          17.4015   -2.9920    0.0000 C.2     1  PRO1        0.2306
     56 CA         16.2426   -4.2792    0.0000 C.3     2  ALA2        0.0966
     57 CE2        15.4382    1.6348    0.0000 C.ar    2  ALA2        0.0467
     58 C          15.2915   -4.5882    0.0000 C.2     2  ALA2        0.2337
     59 CA         15.1972    6.7957    0.0000 C.3     3  GLY3        0.0882
     60 CE3        15.0810   -0.0600    0.0000 C.ar    2  ALA2       -0.0523
     61 CG         14.6678   -7.5227    0.0000 C.2     1  PRO1        0.2127
     62 CB         16.9857   -4.9483    0.0000 C.3     2  ALA2       -0.0381
     63 CZ2        16.4167    1.4286    0.0000 C.ar    2  ALA2       -0.0378
     64 CZ3        16.0595   -0.2662    0.0000 C.ar    2  ALA2       -0.0611
     65 CH2        16.7274    0.4781    0.0000 C.ar    2  ALA2       -0.0598
     66 C          14.3312    6.2957    0.0000 C.2     3  GLY3        0.2308
     67 CA         12.4651    6.2957    0.0000 C.3     4  SER4        0.1226
     68 CB         12.4651    5.2957    0.0000 C.3     4  SER4        0.0711
     69 C          11.5991    6.7957    0.0000 C.2     4  SER4        0.2363
     70 CB          4.2690    7.7957    0.0000 C.3     7  VAL7       -0.0179
     71 CA          4.2690    6.7957    0.0000 C.3     7  VAL7        0.1226
     72 CA          9.7331    6.7957    0.0000 C.3     5  SER5        0.1226
     73 CA          7.0010    6.2957    0.0000 C.3     6  ASN6        0.1076
     74 C           8.8671    6.2957    0.0000 C.2     5  SER5        0.2362
     75 C           6.1350    6.7957    0.0000 C.2     6  ASN6        0.2345
     76 CB          7.0010    5.2957    0.0000 C.3     6  ASN6        0.0506
     77 CG1         3.4030    8.2957    0.0000 C.3     7  VAL7       -0.0605
     78 CG2         5.1350    8.2957    0.0000 C.3     7  VAL7       -0.0605
     79 CB          9.7331    7.7957    0.0000 C.3     5  SER5        0.0711
     80 C           3.4030    6.2957    0.0000 C.2     7  VAL7        0.3255
     81 CG          6.1350    4.7957    0.0000 C.2     6  ASN6        0.2127
     82 HA         11.7845   -2.5420    0.0000 H       1  PRO1        0.0597
     83 HB1        10.6609   -1.2607    0.0000 H       1  PRO1        0.0288
     84 HB2         9.8494   -1.4332    0.0000 H       1  PRO1        0.0288
     85 HG1         9.2670   -2.0800    0.0000 H       1  PRO1        0.0281
     86 HG2         9.1802   -2.9052    0.0000 H       1  PRO1        0.0281
     87 HD1         9.6154   -3.6590    0.0000 H       1  PRO1        0.0465
     88 HD2        10.3734   -3.9964    0.0000 H       1  PRO1        0.0465
     89 HA         11.5663   -5.4526    0.0000 H       1  PRO1        0.0595
     90 HB1        10.6579   -4.5412    0.0000 H       1  PRO1        0.0290
     91 HB2        10.1245   -5.1335    0.0000 H       1  PRO1        0.0290
     92 HG         11.1259   -5.9417    0.0000 H       1  PRO1        0.0296
     93 H          12.6675   -0.3943    0.0000 H       2  ALA2        0.1495
     94 H          12.3094   -6.1217    0.0000 H       1  PRO1        0.1495
     95 HA         12.4596    0.1057    0.0000 H       2  ALA2        0.0598
     96 HB1        12.7845    1.3783    0.0000 H       2  ALA2        0.0337
     97 HB2        12.3860    0.6880    0.0000 H       2  ALA2        0.0337
     98 HD11        9.3936   -5.8527    0.0000 H       1  PRO1        0.0232
     99 HD12        8.9955   -6.6339    0.0000 H       1  PRO1        0.0232
    100 HD13        9.7768   -7.0320    0.0000 H       1  PRO1        0.0232
    101 HD21       10.8645   -7.2632    0.0000 H       1  PRO1        0.0232
    102 HD22       11.7401   -7.2173    0.0000 H       1  PRO1        0.0232
    103 HD23       11.6942   -6.3417    0.0000 H       1  PRO1        0.0232
    104 HA         14.2615   -5.2689    0.0000 H       1  PRO1        0.0599
    105 HA         18.0913   -2.4041    0.0000 H       1  PRO1        0.0556
    106 HB1        16.4387   -0.9063    0.0000 H       1  PRO1        0.0285
    107 HB2        16.5255   -1.7315    0.0000 H       1  PRO1        0.0285
    108 HG1        17.6319    0.1849    0.0000 H       1  PRO1        0.0278
    109 HG2        16.8739   -0.1525    0.0000 H       1  PRO1        0.0278
    110 HB1        13.3498   -6.6213    0.0000 H       1  PRO1        0.0381
    111 HB2        13.5961   -7.3793    0.0000 H       1  PRO1        0.0381
    112 HD1        19.0385   -0.6126    0.0000 H       1  PRO1        0.0424
    113 HD2        18.4833    0.0040    0.0000 H       1  PRO1        0.0424
    114 H          15.5444   -5.9812    0.0000 H       1  PRO1        0.1495
    115 H          19.0599   -1.9172    0.0000 H       1  PRO1        0.1226
    116 HD1        13.5042    2.6984    0.0000 H       2  ALA2        0.0810
    117 H          16.6001    5.9857    0.0000 H       3  GLY3        0.1492
    118 HA         15.7818   -3.8643    0.0000 H       2  ALA2        0.0592
    119 H          15.9897   -2.8862    0.0000 H       2  ALA2        0.1495
    120 HE1        15.1877    3.0609    0.0000 H       2  ALA2        0.1653
    121 HA1        15.5957    7.2706    0.0000 H       3  GLY3        0.0558
    122 HA2        14.7987    7.2706    0.0000 H       3  GLY3        0.0558
    123 HE3        14.6670   -0.5214    0.0000 H       2  ALA2        0.0624
    124 HB1        16.5709   -5.4091    0.0000 H       2  ALA2        0.0252
    125 HB2        17.4465   -5.3632    0.0000 H       2  ALA2        0.0252
    126 HB3        17.4006   -4.4876    0.0000 H       2  ALA2        0.0252
    127 HZ2        16.8308    1.8901    0.0000 H       2  ALA2        0.0638
    128 HZ3        16.2521   -0.8555    0.0000 H       2  ALA2        0.0618
    129 HH2        17.3340    0.3503    0.0000 H       2  ALA2        0.0618
    130 HD21       14.9206   -8.9157    0.0000 H       1  PRO1        0.1449
    131 HD22       13.8702   -8.6924    0.0000 H       1  PRO1        0.1449
    132 H          13.8681    7.1057    0.0000 H       4  SER4        0.1496
    133 HA         13.0021    5.9857    0.0000 H       4  SER4        0.0618
    134 HB1        12.6772    4.7131    0.0000 H       4  SER4        0.0580
    135 HB2        13.0757    5.4033    0.0000 H       4  SER4        0.0580
    136 HB          4.8059    7.4857    0.0000 H       7  VAL7        0.0319
    137 HA          4.2690    6.1757    0.0000 H       7  VAL7        0.0617
    138 HA         10.2700    7.1057    0.0000 H       5  SER5        0.0618
    139 H          11.1360    5.9857    0.0000 H       5  SER5        0.1496
    140 HA          7.5380    5.9857    0.0000 H       6  ASN6        0.0599
    141 H           5.6720    5.9857    0.0000 H       7  VAL7        0.1496
    142 H           8.4040    7.1057    0.0000 H       6  ASN6        0.1495
    143 HB1         7.2131    4.7131    0.0000 H       6  ASN6        0.0381
    144 HB2         7.6116    5.4033    0.0000 H       6  ASN6        0.0381
    145 HG11        3.7130    8.8326    0.0000 H       7  VAL7        0.0233
    146 HG12        2.8660    8.6057    0.0000 H       7  VAL7        0.0233
    147 HG13        3.0930    7.7587    0.0000 H       7  VAL7        0.0233
    148 HG21        5.4450    7.7587    0.0000 H       7  VAL7        0.0233
    149 HG22        5.6720    8.6057    0.0000 H       7  VAL7        0.0233
    150 HG23        4.8250    8.8326    0.0000 H       7  VAL7        0.0233
    151 HB1        10.3437    7.6880    0.0000 H       5  SER5        0.0580
    152 HB2         9.9451    8.3783    0.0000 H       5  SER5        0.0580
    153 H          11.5991    4.1757    0.0000 H       4  SER4        0.2095
    154 H           8.8671    8.9157    0.0000 H       5  SER5        0.2095
    155 H           2.0000    6.4857    0.0000 H       7  VAL7        0.2951
    156 HD21        5.5981    3.4857    0.0000 H       6  ASN6        0.1449
    157 HD22        6.6720    3.4857    0.0000 H       6  ASN6        0.1449
@<TRIPOS>BOND
     1     1    35    2
     2     2    37    2
     3     3    44    2
     4     4    46    2
     5     5    55    2
     6     6    58    2
     7     7    61    2
     8     8    66    2
     9     9    68    1
    10     9   153    1
    11    10    69    2
    12    11    79    1
    13    11   154    1
    14    12    74    2
    15    13    75    2
    16    14    80    1
    17    14   155    1
    18    15    80    2
    19    16    81    2
    20    17    31    1
    21    17    34    1
    22    17    35   am
    23    18    37   am
    24    40    18    1
    25    18    93    1
    26    36    19    1
    27    19    44   am
    28    19    94    1
    29    45    20    1
    30    20    58   am
    31    20   114    1
    32    21    48    1
    33    21    52    1
    34    21   115    1
    35    22    46   am
    36    22    59    1
    37    22   117    1
    38    23    55   am
    39    56    23    1
    40    23   119    1
    41    24    54   ar
    42    24    57   ar
    43    24   120    1
    44    25    61   am
    45    25   130    1
    46    25   131    1
    47    26    66   am
    48    67    26    1
    49    26   132    1
    50    27    69   am
    51    72    27    1
    52    27   139    1
    53    71    28    1
    54    28    75   am
    55    28   141    1
    56    73    29    1
    57    29    74   am
    58    29   142    1
    59    30    81   am
    60    30   156    1
    61    30   157    1
    62    31    32    1
    63    31    37    1
    64    31    82    1
    65    32    33    1
    66    32    83    1
    67    32    84    1
    68    33    34    1
    69    33    85    1
    70    33    86    1
    71    34    87    1
    72    34    88    1
    73    35    36    1
    74    36    38    1
    75    36    89    1
    76    38    39    1
    77    38    90    1
    78    38    91    1
    79    39    42    1
    80    39    43    1
    81    39    92    1
    82    40    41    1
    83    40    46    1
    84    40    95    1
    85    41    47    1
    86    41    96    1
    87    41    97    1
    88    42    98    1
    89    42    99    1
    90    42   100    1
    91    43   101    1
    92    43   102    1
    93    43   103    1
    94    44    45    1
    95    45    51    1
    96    45   104    1
    97    47    53   ar
    98    47    54   ar
    99    48    49    1
   100    48    55    1
   101    48   105    1
   102    49    50    1
   103    49   106    1
   104    49   107    1
   105    50    52    1
   106    50   108    1
   107    50   109    1
   108    51    61    1
   109    51   110    1
   110    51   111    1
   111    52   112    1
   112    52   113    1
   113    53    57   ar
   114    53    60   ar
   115    54   116    1
   116    56    58    1
   117    56    62    1
   118    56   118    1
   119    57    63   ar
   120    59    66    1
   121    59   121    1
   122    59   122    1
   123    60    64   ar
   124    60   123    1
   125    62   124    1
   126    62   125    1
   127    62   126    1
   128    63    65   ar
   129    63   127    1
   130    64    65   ar
   131    64   128    1
   132    65   129    1
   133    67    68    1
   134    67    69    1
   135    67   133    1
   136    68   134    1
   137    68   135    1
   138    70    71    1
   139    70    77    1
   140    70    78    1
   141    70   136    1
   142    71    80    1
   143    71   137    1
   144    72    74    1
   145    72    79    1
   146    72   138    1
   147    73    75    1
   148    73    76    1
   149    73   140    1
   150    76    81    1
   151    76   143    1
   152    76   144    1
   153    77   145    1
   154    77   146    1
   155    77   147    1
   156    78   148    1
   157    78   149    1
   158    78   150    1
   159    79   151    1
   160    79   152    1
