@<TRIPOS>MOLECULE
IMPHY009474
 101 105 0 0 0
SMALL
GASTEIGER

@<TRIPOS>ATOM
      1 O           6.8671   -4.4699    0.0000 O.3     1  UNL1       -0.3454
      2 O           5.1350   -4.4699    0.0000 O.3     1  UNL1       -0.3405
      3 O           6.8671   -6.4699    0.0000 O.3     1  UNL1       -0.3841
      4 O           5.1350   -7.4699    0.0000 O.3     1  UNL1       -0.3864
      5 O           3.4030   -6.4699    0.0000 O.3     1  UNL1       -0.3865
      6 O           2.5369   -4.9699    0.0000 O.3     1  UNL1       -0.3924
      7 C           6.8963    1.7270    0.0000 C.3     1  UNL1       -0.0225
      8 C           7.7643    1.2303    0.0000 C.3     1  UNL1       -0.0140
      9 C           6.9040   -0.2730    0.0000 C.3     1  UNL1       -0.0139
     10 C           6.8920   -1.3146    0.0000 C.3     1  UNL1       -0.0223
     11 C           7.1018    2.6996    0.0000 C.3     1  UNL1       -0.0325
     12 C           7.7681    0.2303    0.0000 C.2     1  UNL1       -0.0662
     13 C           6.0322    1.2236    0.0000 C.3     1  UNL1       -0.0463
     14 C           6.0361    0.2237    0.0000 C.3     1  UNL1       -0.0455
     15 C           7.7920   -1.8389    0.0000 C.3     1  UNL1       -0.0293
     16 C           8.4987    1.9002    0.0000 C.3     1  UNL1       -0.0457
     17 C           8.0901    2.8065    0.0000 C.3     1  UNL1       -0.0489
     18 C           5.9421   -1.8389    0.0000 C.3     1  UNL1       -0.0445
     19 C           6.4311    3.4413    0.0000 C.3     1  UNL1       -0.0405
     20 C           6.0284    2.2236    0.0000 C.3     1  UNL1       -0.0588
     21 C           8.6921   -1.3146    0.0000 C.3     1  UNL1       -0.0311
     22 C           8.6801   -0.2730    0.0000 C.2     1  UNL1       -0.0839
     23 C           7.8046   -2.9238    0.0000 C.3     1  UNL1       -0.0229
     24 C           6.0279   -0.8112    0.0000 C.3     1  UNL1       -0.0588
     25 C           5.9295   -2.9238    0.0000 C.3     1  UNL1       -0.0260
     26 C           6.8671   -3.4699    0.0000 C.3     1  UNL1        0.0621
     27 C           6.7381    4.3930    0.0000 C.3     1  UNL1       -0.0499
     28 C           5.4534    3.2313    0.0000 C.3     1  UNL1       -0.0621
     29 C           6.0674    5.1348    0.0000 C.3     1  UNL1       -0.0497
     30 C           6.3744    6.0865    0.0000 C.3     1  UNL1       -0.0389
     31 C           6.0010   -4.9699    0.0000 C.3     1  UNL1        0.1882
     32 C           5.7036    6.8282    0.0000 C.3     1  UNL1       -0.0439
     33 C           7.3521    6.2964    0.0000 C.3     1  UNL1       -0.0528
     34 C           6.0010   -5.9699    0.0000 C.3     1  UNL1        0.1341
     35 C           5.1350   -6.4699    0.0000 C.3     1  UNL1        0.1141
     36 C           4.2690   -4.9699    0.0000 C.3     1  UNL1        0.1130
     37 C           4.2690   -5.9699    0.0000 C.3     1  UNL1        0.1119
     38 C           6.0106    7.7799    0.0000 C.3     1  UNL1       -0.0624
     39 C           4.7259    6.6182    0.0000 C.3     1  UNL1       -0.0624
     40 C           7.6591    7.2482    0.0000 C.3     1  UNL1       -0.0650
     41 C           3.4030   -4.4699    0.0000 C.3     1  UNL1        0.0730
     42 H           8.5426    0.8886    0.0000 H       1  UNL1        0.0351
     43 H           7.6385   -0.7008    0.0000 H       1  UNL1        0.0351
     44 H           7.4044    3.4939    0.0000 H       1  UNL1        0.0309
     45 H           5.8179    1.8054    0.0000 H       1  UNL1        0.0271
     46 H           5.4221    1.1136    0.0000 H       1  UNL1        0.0271
     47 H           5.4251    0.3290    0.0000 H       1  UNL1        0.0271
     48 H           5.8263   -0.3598    0.0000 H       1  UNL1        0.0271
     49 H           8.5314   -2.2582    0.0000 H       1  UNL1        0.0310
     50 H           8.8661    1.4008    0.0000 H       1  UNL1        0.0271
     51 H           9.0340    2.2131    0.0000 H       1  UNL1        0.0271
     52 H           8.6790    3.0005    0.0000 H       1  UNL1        0.0268
     53 H           7.9590    3.4124    0.0000 H       1  UNL1        0.0268
     54 H           5.7398   -1.2528    0.0000 H       1  UNL1        0.0272
     55 H           5.3300   -1.9379    0.0000 H       1  UNL1        0.0272
     56 H           6.0152    3.9012    0.0000 H       1  UNL1        0.0301
     57 H           6.3363    2.7618    0.0000 H       1  UNL1        0.0235
     58 H           5.4902    2.5316    0.0000 H       1  UNL1        0.0235
     59 H           5.7204    1.6855    0.0000 H       1  UNL1        0.0235
     60 H           8.9079   -1.8958    0.0000 H       1  UNL1        0.0310
     61 H           9.3017   -1.2014    0.0000 H       1  UNL1        0.0310
     62 H           9.2122    0.0452    0.0000 H       1  UNL1        0.0572
     63 H           8.0204   -3.5050    0.0000 H       1  UNL1        0.0293
     64 H           8.4142   -2.8106    0.0000 H       1  UNL1        0.0293
     65 H           6.3400   -0.2755    0.0000 H       1  UNL1        0.0235
     66 H           5.4922   -0.4992    0.0000 H       1  UNL1        0.0235
     67 H           5.7158   -1.3470    0.0000 H       1  UNL1        0.0235
     68 H           5.3199   -2.8106    0.0000 H       1  UNL1        0.0290
     69 H           5.7137   -3.5050    0.0000 H       1  UNL1        0.0290
     70 H           7.4046   -3.7789    0.0000 H       1  UNL1        0.0597
     71 H           7.2861    4.1031    0.0000 H       1  UNL1        0.0268
     72 H           7.1187    4.8824    0.0000 H       1  UNL1        0.0268
     73 H           5.3232    3.8375    0.0000 H       1  UNL1        0.0233
     74 H           4.8472    3.1011    0.0000 H       1  UNL1        0.0233
     75 H           5.5836    2.6252    0.0000 H       1  UNL1        0.0233
     76 H           5.5193    5.4247    0.0000 H       1  UNL1        0.0268
     77 H           5.6867    4.6454    0.0000 H       1  UNL1        0.0268
     78 H           6.7902    5.6266    0.0000 H       1  UNL1        0.0303
     79 H           6.0010   -4.3499    0.0000 H       1  UNL1        0.0937
     80 H           5.5133    6.2381    0.0000 H       1  UNL1        0.0298
     81 H           7.3750    5.6769    0.0000 H       1  UNL1        0.0265
     82 H           7.9662    6.2115    0.0000 H       1  UNL1        0.0265
     83 H           6.0010   -6.5899    0.0000 H       1  UNL1        0.0671
     84 H           4.5981   -6.7799    0.0000 H       1  UNL1        0.0648
     85 H           4.2690   -4.3499    0.0000 H       1  UNL1        0.0647
     86 H           3.7320   -5.6599    0.0000 H       1  UNL1        0.0647
     87 H           4.5958    7.2244    0.0000 H       1  UNL1        0.0232
     88 H           4.1198    6.4880    0.0000 H       1  UNL1        0.0232
     89 H           4.8561    6.0120    0.0000 H       1  UNL1        0.0232
     90 H           6.6007    7.5896    0.0000 H       1  UNL1        0.0232
     91 H           6.2010    8.3700    0.0000 H       1  UNL1        0.0232
     92 H           5.4206    7.9702    0.0000 H       1  UNL1        0.0232
     93 H           8.2491    7.0578    0.0000 H       1  UNL1        0.0230
     94 H           7.8494    7.8382    0.0000 H       1  UNL1        0.0230
     95 H           7.0690    7.4385    0.0000 H       1  UNL1        0.0230
     96 H           6.8671   -7.0899    0.0000 H       1  UNL1        0.2101
     97 H           3.8015   -3.9950    0.0000 H       1  UNL1        0.0584
     98 H           3.0044   -3.9950    0.0000 H       1  UNL1        0.0584
     99 H           4.5981   -7.7799    0.0000 H       1  UNL1        0.2100
    100 H           3.4030   -7.0899    0.0000 H       1  UNL1        0.2100
    101 H           2.0000   -4.6599    0.0000 H       1  UNL1        0.2095
@<TRIPOS>BOND
     1    26     1    1
     2    31     1    1
     3     2    31    1
     4     2    36    1
     5    34     3    1
     6     3    96    1
     7    35     4    1
     8     4    99    1
     9    37     5    1
    10     5   100    1
    11     6    41    1
    12     6   101    1
    13     7     8    1
    14     7    11    1
    15     7    13    1
    16     7    20    1
    17     8    12    1
    18     8    16    1
    19     8    42    1
    20     9    10    1
    21     9    12    1
    22     9    14    1
    23     9    43    1
    24    10    15    1
    25    10    18    1
    26    10    24    1
    27    11    17    1
    28    11    19    1
    29    11    44    1
    30    12    22    2
    31    13    14    1
    32    13    45    1
    33    13    46    1
    34    14    47    1
    35    14    48    1
    36    15    21    1
    37    15    23    1
    38    15    49    1
    39    16    17    1
    40    16    50    1
    41    16    51    1
    42    17    52    1
    43    17    53    1
    44    18    25    1
    45    18    54    1
    46    18    55    1
    47    19    27    1
    48    19    28    1
    49    19    56    1
    50    20    57    1
    51    20    58    1
    52    20    59    1
    53    21    22    1
    54    21    60    1
    55    21    61    1
    56    22    62    1
    57    23    26    1
    58    23    63    1
    59    23    64    1
    60    24    65    1
    61    24    66    1
    62    24    67    1
    63    25    26    1
    64    25    68    1
    65    25    69    1
    66    26    70    1
    67    27    29    1
    68    27    71    1
    69    27    72    1
    70    28    73    1
    71    28    74    1
    72    28    75    1
    73    30    29    1
    74    29    76    1
    75    29    77    1
    76    30    32    1
    77    30    33    1
    78    30    78    1
    79    31    34    1
    80    31    79    1
    81    32    38    1
    82    32    39    1
    83    32    80    1
    84    33    40    1
    85    33    81    1
    86    33    82    1
    87    34    35    1
    88    34    83    1
    89    35    37    1
    90    35    84    1
    91    36    37    1
    92    36    41    1
    93    36    85    1
    94    37    86    1
    95    38    90    1
    96    38    91    1
    97    38    92    1
    98    39    87    1
    99    39    88    1
   100    39    89    1
   101    40    93    1
   102    40    94    1
   103    40    95    1
   104    41    97    1
   105    41    98    1
