@<TRIPOS>MOLECULE
IMPHY016566
 25 25 0 0 0
SMALL
GASTEIGER

@<TRIPOS>ATOM
      1 C           4.5981   -0.0000    0.0000 C.3     1  UNL1       -0.0227
      2 C           2.8660    0.0000    0.0000 C.3     1  UNL1       -0.0227
      3 C           4.5981   -1.0000    0.0000 C.3     1  UNL1       -0.0467
      4 C           2.8660   -1.0000    0.0000 C.3     1  UNL1       -0.0467
      5 C           3.7320   -1.5000    0.0000 C.3     1  UNL1       -0.0520
      6 C           3.7320    0.5000    0.0000 C.2     1  UNL1       -0.0710
      7 C           5.4641    0.5000    0.0000 C.3     1  UNL1       -0.0587
      8 C           2.0000    0.5000    0.0000 C.3     1  UNL1       -0.0587
      9 C           3.7320    1.5000    0.0000 C.2     1  UNL1       -0.0989
     10 H           4.5981    0.6200    0.0000 H       1  UNL1        0.0343
     11 H           2.8660    0.6200    0.0000 H       1  UNL1        0.0343
     12 H           4.8101   -1.5826    0.0000 H       1  UNL1        0.0271
     13 H           5.2087   -0.8923    0.0000 H       1  UNL1        0.0271
     14 H           2.2554   -0.8923    0.0000 H       1  UNL1        0.0271
     15 H           2.6540   -1.5826    0.0000 H       1  UNL1        0.0271
     16 H           3.3335   -1.9750    0.0000 H       1  UNL1        0.0266
     17 H           4.1306   -1.9750    0.0000 H       1  UNL1        0.0266
     18 H           5.7741   -0.0369    0.0000 H       1  UNL1        0.0235
     19 H           6.0010    0.8100    0.0000 H       1  UNL1        0.0235
     20 H           5.1541    1.0369    0.0000 H       1  UNL1        0.0235
     21 H           2.3100    1.0369    0.0000 H       1  UNL1        0.0235
     22 H           1.4631    0.8100    0.0000 H       1  UNL1        0.0235
     23 H           1.6900   -0.0369    0.0000 H       1  UNL1        0.0235
     24 H           4.2690    1.8100    0.0000 H       1  UNL1        0.0535
     25 H           3.1951    1.8100    0.0000 H       1  UNL1        0.0535
@<TRIPOS>BOND
     1     1     3    1
     2     1     6    1
     3     1     7    1
     4     1    10    1
     5     2     4    1
     6     2     6    1
     7     2     8    1
     8     2    11    1
     9     3     5    1
    10     3    12    1
    11     3    13    1
    12     4     5    1
    13     4    14    1
    14     4    15    1
    15     5    16    1
    16     5    17    1
    17     6     9    2
    18     7    18    1
    19     7    19    1
    20     7    20    1
    21     8    21    1
    22     8    22    1
    23     8    23    1
    24     9    24    1
    25     9    25    1
