@<TRIPOS>MOLECULE
IMPHY007721
 16 15 0 0 0
SMALL
GASTEIGER

@<TRIPOS>ATOM
      1 O           6.8671    0.2500    0.0000 O.3     1  UNL1       -0.3950
      2 O           2.5369   -0.2500    0.0000 O.3     1  UNL1       -0.3950
      3 C           5.1350    0.2500    0.0000 C.3     1  UNL1       -0.0276
      4 C           4.2690   -0.2500    0.0000 C.3     1  UNL1       -0.0276
      5 C           6.0010   -0.2500    0.0000 C.3     1  UNL1        0.0443
      6 C           3.4030    0.2500    0.0000 C.3     1  UNL1        0.0443
      7 H           5.5335    0.7249    0.0000 H       1  UNL1        0.0288
      8 H           4.7365    0.7249    0.0000 H       1  UNL1        0.0288
      9 H           3.8705   -0.7249    0.0000 H       1  UNL1        0.0288
     10 H           4.6675   -0.7249    0.0000 H       1  UNL1        0.0288
     11 H           5.6025   -0.7249    0.0000 H       1  UNL1        0.0557
     12 H           6.3996   -0.7249    0.0000 H       1  UNL1        0.0557
     13 H           3.8015    0.7249    0.0000 H       1  UNL1        0.0557
     14 H           3.0044    0.7249    0.0000 H       1  UNL1        0.0557
     15 H           7.4040   -0.0600    0.0000 H       1  UNL1        0.2094
     16 H           2.0000    0.0600    0.0000 H       1  UNL1        0.2094
@<TRIPOS>BOND
     1     1     5    1
     2     1    15    1
     3     2     6    1
     4     2    16    1
     5     3     4    1
     6     3     5    1
     7     3     7    1
     8     3     8    1
     9     4     6    1
    10     4     9    1
    11     4    10    1
    12     5    11    1
    13     5    12    1
    14     6    13    1
    15     6    14    1
