@<TRIPOS>MOLECULE
IMPHY009158
 82 86 0 0 0
SMALL
GASTEIGER

@<TRIPOS>ATOM
      1 O          10.1808   -0.8381    0.0000 O.3     1  UNL1       -0.3912
      2 O          11.1246    2.8304    0.0000 O.2     1  UNL1       -0.2971
      3 C           6.6507   -0.8139    0.0000 C.3     1  UNL1       -0.0230
      4 C           5.7847   -0.3139    0.0000 C.3     1  UNL1       -0.0230
      5 C           7.5167   -0.3139    0.0000 C.3     1  UNL1       -0.0271
      6 C           7.5167    0.6861    0.0000 C.3     1  UNL1       -0.0252
      7 C           4.8746   -0.8208    0.0000 C.3     1  UNL1       -0.0292
      8 C           8.4106    1.2207    0.0000 C.3     1  UNL1       -0.0266
      9 C           4.8666   -1.8624    0.0000 C.3     1  UNL1       -0.0287
     10 C           5.7847    0.6861    0.0000 C.3     1  UNL1       -0.0463
     11 C           6.6507    1.1861    0.0000 C.3     1  UNL1       -0.0466
     12 C           6.6667   -1.8554    0.0000 C.3     1  UNL1       -0.0463
     13 C           9.3167    0.7069    0.0000 C.3     1  UNL1        0.0065
     14 C           8.4106   -0.8486    0.0000 C.3     1  UNL1       -0.0225
     15 C           5.7687   -2.3832    0.0000 C.3     1  UNL1       -0.0468
     16 C           9.3167   -0.3348    0.0000 C.3     1  UNL1        0.0618
     17 C           3.9478   -0.2567    0.0000 C.3     1  UNL1       -0.0440
     18 C           7.5167   -1.3139    0.0000 C.3     1  UNL1       -0.0588
     19 C           4.9186    0.1861    0.0000 C.3     1  UNL1       -0.0588
     20 C           3.9312   -2.4121    0.0000 C.3     1  UNL1       -0.0469
     21 C           7.5167    1.6861    0.0000 C.3     1  UNL1       -0.0590
     22 C           2.9999   -0.7846    0.0000 C.3     1  UNL1       -0.0346
     23 C           8.3856    2.3054    0.0000 C.3     1  UNL1       -0.0424
     24 C          10.2605    1.2421    0.0000 C.3     1  UNL1        0.0227
     25 C           2.9916   -1.8696    0.0000 C.3     1  UNL1       -0.0474
     26 C           4.8589   -2.8624    0.0000 C.3     1  UNL1       -0.0593
     27 C          10.1866    0.2136    0.0000 C.3     1  UNL1       -0.0563
     28 C           9.3167    2.8624    0.0000 C.3     1  UNL1        0.0064
     29 C          10.2605    2.3271    0.0000 C.2     1  UNL1        0.1368
     30 C           2.0000   -0.7731    0.0000 C.3     1  UNL1       -0.0598
     31 C           2.5100    0.0871    0.0000 C.3     1  UNL1       -0.0598
     32 C          11.1246    0.7388    0.0000 C.3     1  UNL1       -0.0551
     33 H           8.2561    0.1054    0.0000 H       1  UNL1        0.0312
     34 H           5.6058   -1.2543    0.0000 H       1  UNL1        0.0312
     35 H           9.1401    1.6570    0.0000 H       1  UNL1        0.0312
     36 H           5.5726    1.2687    0.0000 H       1  UNL1        0.0271
     37 H           5.1741    0.5784    0.0000 H       1  UNL1        0.0271
     38 H           7.0492    1.6610    0.0000 H       1  UNL1        0.0271
     39 H           6.2522    1.6610    0.0000 H       1  UNL1        0.0271
     40 H           6.8848   -2.4358    0.0000 H       1  UNL1        0.0271
     41 H           7.2759   -1.7399    0.0000 H       1  UNL1        0.0271
     42 H           8.0060   -1.3184    0.0000 H       1  UNL1        0.0293
     43 H           8.8043   -1.3276    0.0000 H       1  UNL1        0.0293
     44 H           5.3714   -2.8592    0.0000 H       1  UNL1        0.0271
     45 H           6.1697   -2.8561    0.0000 H       1  UNL1        0.0271
     46 H           9.3131   -0.9547    0.0000 H       1  UNL1        0.0599
     47 H           4.3560    0.2100    0.0000 H       1  UNL1        0.0273
     48 H           3.5579    0.2253    0.0000 H       1  UNL1        0.0273
     49 H           7.2067   -1.8509    0.0000 H       1  UNL1        0.0235
     50 H           8.0536   -1.6239    0.0000 H       1  UNL1        0.0235
     51 H           7.8267   -0.7770    0.0000 H       1  UNL1        0.0235
     52 H           5.2286    0.7230    0.0000 H       1  UNL1        0.0235
     53 H           4.3817    0.4961    0.0000 H       1  UNL1        0.0235
     54 H           4.6086   -0.3509    0.0000 H       1  UNL1        0.0235
     55 H           3.5339   -2.8881    0.0000 H       1  UNL1        0.0271
     56 H           4.3322   -2.8850    0.0000 H       1  UNL1        0.0271
     57 H           8.1367    1.6861    0.0000 H       1  UNL1        0.0235
     58 H           7.5167    2.3061    0.0000 H       1  UNL1        0.0235
     59 H           6.8967    1.6861    0.0000 H       1  UNL1        0.0235
     60 H           8.1631    2.8841    0.0000 H       1  UNL1        0.0272
     61 H           7.7773    2.1852    0.0000 H       1  UNL1        0.0272
     62 H          10.7980    1.5511    0.0000 H       1  UNL1        0.0381
     63 H           2.3816   -1.7588    0.0000 H       1  UNL1        0.0271
     64 H           2.7780   -2.4517    0.0000 H       1  UNL1        0.0271
     65 H           4.2389   -2.8576    0.0000 H       1  UNL1        0.0235
     66 H           4.8541   -3.4823    0.0000 H       1  UNL1        0.0235
     67 H           5.4789   -2.8671    0.0000 H       1  UNL1        0.0235
     68 H           9.8807   -0.3257    0.0000 H       1  UNL1        0.0236
     69 H          10.7259   -0.0923    0.0000 H       1  UNL1        0.0236
     70 H          10.4924    0.7529    0.0000 H       1  UNL1        0.0236
     71 H           9.7103    3.3414    0.0000 H       1  UNL1        0.0342
     72 H           8.9121    3.3321    0.0000 H       1  UNL1        0.0342
     73 H           2.0072   -0.1531    0.0000 H       1  UNL1        0.0235
     74 H           1.3800   -0.7659    0.0000 H       1  UNL1        0.0235
     75 H           1.9928   -1.3930    0.0000 H       1  UNL1        0.0235
     76 H           3.0505    0.3909    0.0000 H       1  UNL1        0.0235
     77 H           2.2062    0.6276    0.0000 H       1  UNL1        0.0235
     78 H           1.9695   -0.2167    0.0000 H       1  UNL1        0.0235
     79 H          10.1784   -1.4581    0.0000 H       1  UNL1        0.2098
     80 H          10.8125    0.2030    0.0000 H       1  UNL1        0.0237
     81 H          11.6603    0.4267    0.0000 H       1  UNL1        0.0237
     82 H          11.4367    1.2745    0.0000 H       1  UNL1        0.0237
@<TRIPOS>BOND
     1    16     1    1
     2     1    79    1
     3     2    29    2
     4     3     4    1
     5     3     5    1
     6     3    12    1
     7     3    18    1
     8     4     7    1
     9     4    10    1
    10     4    19    1
    11     5     6    1
    12     5    14    1
    13     5    33    1
    14     6     8    1
    15     6    11    1
    16     6    21    1
    17     7     9    1
    18     7    17    1
    19     7    34    1
    20     8    13    1
    21     8    23    1
    22     8    35    1
    23     9    15    1
    24     9    20    1
    25     9    26    1
    26    10    11    1
    27    10    36    1
    28    10    37    1
    29    11    38    1
    30    11    39    1
    31    12    15    1
    32    12    40    1
    33    12    41    1
    34    13    16    1
    35    13    24    1
    36    13    27    1
    37    14    16    1
    38    14    42    1
    39    14    43    1
    40    15    44    1
    41    15    45    1
    42    16    46    1
    43    17    22    1
    44    17    47    1
    45    17    48    1
    46    18    49    1
    47    18    50    1
    48    18    51    1
    49    19    52    1
    50    19    53    1
    51    19    54    1
    52    20    25    1
    53    20    55    1
    54    20    56    1
    55    21    57    1
    56    21    58    1
    57    21    59    1
    58    22    25    1
    59    22    30    1
    60    22    31    1
    61    23    28    1
    62    23    60    1
    63    23    61    1
    64    24    29    1
    65    24    32    1
    66    24    62    1
    67    25    63    1
    68    25    64    1
    69    26    65    1
    70    26    66    1
    71    26    67    1
    72    27    68    1
    73    27    69    1
    74    27    70    1
    75    28    29    1
    76    28    71    1
    77    28    72    1
    78    30    73    1
    79    30    74    1
    80    30    75    1
    81    31    76    1
    82    31    77    1
    83    31    78    1
    84    32    80    1
    85    32    81    1
    86    32    82    1
