@<TRIPOS>MOLECULE
IMPHY001252
 31 32 0 0 0
SMALL
GASTEIGER

@<TRIPOS>ATOM
      1 O           2.5369   -0.1311    0.0000 O.3     1  UNL1       -0.5067
      2 N           7.6811    1.7809    0.0000 N.3     1  UNL1       -0.3080
      3 N           6.0812   -1.9358    0.0000 N.ar    1  UNL1       -0.3604
      4 C           6.3919    0.6241    0.0000 C.3     1  UNL1       -0.0129
      5 C           6.0812   -0.3264    0.0000 C.ar    1  UNL1       -0.0210
      6 C           5.1350   -0.6311    0.0000 C.ar    1  UNL1        0.0063
      7 C           7.3704    0.8304    0.0000 C.3     1  UNL1        0.0024
      8 C           5.1350   -1.6311    0.0000 C.ar    1  UNL1        0.0470
      9 C           6.6648   -1.1311    0.0000 C.ar    1  UNL1        0.0059
     10 C           4.2690   -0.1311    0.0000 C.ar    1  UNL1       -0.0108
     11 C           4.2690   -2.1311    0.0000 C.ar    1  UNL1       -0.0343
     12 C           3.4030   -0.6311    0.0000 C.ar    1  UNL1        0.1176
     13 C           8.6596    1.9871    0.0000 C.3     1  UNL1       -0.0130
     14 C           7.0132    2.5252    0.0000 C.3     1  UNL1       -0.0130
     15 C           3.4030   -1.6311    0.0000 C.ar    1  UNL1       -0.0182
     16 H           6.3713    1.2438    0.0000 H       1  UNL1        0.0326
     17 H           5.7781    0.7115    0.0000 H       1  UNL1        0.0326
     18 H           7.3910    0.2107    0.0000 H       1  UNL1        0.0429
     19 H           7.9842    0.7430    0.0000 H       1  UNL1        0.0429
     20 H           7.2848   -1.1311    0.0000 H       1  UNL1        0.0810
     21 H           6.2738   -2.5252    0.0000 H       1  UNL1        0.1653
     22 H           4.2690    0.4889    0.0000 H       1  UNL1        0.0661
     23 H           4.2690   -2.7511    0.0000 H       1  UNL1        0.0639
     24 H           8.7874    1.3804    0.0000 H       1  UNL1        0.0391
     25 H           9.2662    2.1150    0.0000 H       1  UNL1        0.0391
     26 H           8.5317    2.5938    0.0000 H       1  UNL1        0.0391
     27 H           7.4747    2.9392    0.0000 H       1  UNL1        0.0391
     28 H           6.5992    2.9866    0.0000 H       1  UNL1        0.0391
     29 H           6.5518    2.1111    0.0000 H       1  UNL1        0.0391
     30 H           2.8660   -1.9411    0.0000 H       1  UNL1        0.0655
     31 H           2.0000   -0.4411    0.0000 H       1  UNL1        0.2921
@<TRIPOS>BOND
     1     1    12    1
     2     1    31    1
     3     2     7    1
     4     2    13    1
     5     2    14    1
     6     3     8   ar
     7     3     9   ar
     8     3    21    1
     9     4     5    1
    10     4     7    1
    11     4    16    1
    12     4    17    1
    13     5     6   ar
    14     5     9   ar
    15     6     8   ar
    16     6    10   ar
    17     7    18    1
    18     7    19    1
    19     8    11   ar
    20     9    20    1
    21    10    12   ar
    22    10    22    1
    23    11    15   ar
    24    11    23    1
    25    12    15   ar
    26    13    24    1
    27    13    25    1
    28    13    26    1
    29    14    27    1
    30    14    28    1
    31    14    29    1
    32    15    30    1
