@<TRIPOS>MOLECULE
IMPHY007948
 130 129 0 0 0
SMALL
GASTEIGER

@<TRIPOS>ATOM
      1 P           6.3301   -6.5670    0.0000 P.3     1  UNL1        0.2128
      2 O           5.4641   -7.0670    0.0000 O.3     1  UNL1       -0.3221
      3 O           9.7942   -6.5670    0.0000 O.3     1  UNL1       -0.4555
      4 O           9.7942   -4.5670    0.0000 O.3     1  UNL1       -0.4608
      5 O           7.1962   -6.0670    0.0000 O.3     1  UNL1       -0.3236
      6 O          10.6603   -5.0670    0.0000 O.2     1  UNL1       -0.2508
      7 O           8.9282   -3.0670    0.0000 O.2     1  UNL1       -0.2509
      8 O           5.8301   -5.7010    0.0000 O.co2   1  UNL1       -0.4373
      9 O           6.8301   -7.4330    0.0000 O.2     1  UNL1       -0.5172
     10 N           2.8660   -6.5670    0.0000 N.4     1  UNL1        0.2385
     11 C          16.7224   -6.5670    0.0000 C.3     1  UNL1       -0.0531
     12 C          17.5885   -6.0670    0.0000 C.3     1  UNL1       -0.0531
     13 C          13.2583    1.4330    0.0000 C.3     1  UNL1       -0.0531
     14 C          13.2583    2.4330    0.0000 C.3     1  UNL1       -0.0531
     15 C          15.8564   -6.0670    0.0000 C.3     1  UNL1       -0.0531
     16 C          18.4545   -6.5670    0.0000 C.3     1  UNL1       -0.0531
     17 C          12.3923    0.9330    0.0000 C.3     1  UNL1       -0.0531
     18 C          14.1244    2.9330    0.0000 C.3     1  UNL1       -0.0531
     19 C          14.9904   -6.5670    0.0000 C.3     1  UNL1       -0.0531
     20 C          19.3205   -6.0670    0.0000 C.3     1  UNL1       -0.0531
     21 C          12.3923   -0.0670    0.0000 C.3     1  UNL1       -0.0531
     22 C          14.1244    3.9330    0.0000 C.3     1  UNL1       -0.0531
     23 C          14.1244   -6.0670    0.0000 C.3     1  UNL1       -0.0530
     24 C          11.5263   -0.5670    0.0000 C.3     1  UNL1       -0.0530
     25 C          20.1865   -6.5670    0.0000 C.3     1  UNL1       -0.0531
     26 C          14.9904    4.4330    0.0000 C.3     1  UNL1       -0.0531
     27 C          13.2583   -6.5670    0.0000 C.3     1  UNL1       -0.0526
     28 C          11.5263   -1.5670    0.0000 C.3     1  UNL1       -0.0526
     29 C          21.0526   -6.0670    0.0000 C.3     1  UNL1       -0.0531
     30 C          14.9904    5.4330    0.0000 C.3     1  UNL1       -0.0531
     31 C           3.7320   -7.0670    0.0000 C.3     1  UNL1       -0.0064
     32 C          12.3923   -6.0670    0.0000 C.3     1  UNL1       -0.0430
     33 C          10.6603   -2.0670    0.0000 C.3     1  UNL1       -0.0430
     34 C          21.9186   -6.5670    0.0000 C.3     1  UNL1       -0.0533
     35 C          15.8564    5.9330    0.0000 C.3     1  UNL1       -0.0533
     36 C           2.0000   -6.0670    0.0000 C.3     1  UNL1       -0.0417
     37 C           2.3660   -7.4330    0.0000 C.3     1  UNL1       -0.0417
     38 C           3.3660   -5.7010    0.0000 C.3     1  UNL1       -0.0417
     39 C           4.5981   -6.5670    0.0000 C.3     1  UNL1        0.0947
     40 C          11.5263   -6.5670    0.0000 C.3     1  UNL1        0.0450
     41 C          10.6603   -3.0670    0.0000 C.3     1  UNL1        0.0449
     42 C          22.7846   -6.0670    0.0000 C.3     1  UNL1       -0.0559
     43 C          15.8564    6.9330    0.0000 C.3     1  UNL1       -0.0559
     44 C           8.9282   -6.0670    0.0000 C.3     1  UNL1        0.1604
     45 C          10.6603   -6.0670    0.0000 C.2     1  UNL1        0.3075
     46 C          23.6506   -6.5670    0.0000 C.3     1  UNL1       -0.0653
     47 C           9.7942   -3.5670    0.0000 C.2     1  UNL1        0.3072
     48 C          16.7224    7.4330    0.0000 C.3     1  UNL1       -0.0653
     49 C           8.9282   -5.0670    0.0000 C.3     1  UNL1        0.1315
     50 C           8.0622   -6.5670    0.0000 C.3     1  UNL1        0.0951
     51 H          16.3239   -7.0419    0.0000 H       1  UNL1        0.0265
     52 H          17.1210   -7.0419    0.0000 H       1  UNL1        0.0265
     53 H          17.9870   -5.5920    0.0000 H       1  UNL1        0.0265
     54 H          17.1899   -5.5920    0.0000 H       1  UNL1        0.0265
     55 H          13.4704    0.8504    0.0000 H       1  UNL1        0.0265
     56 H          13.8689    1.5407    0.0000 H       1  UNL1        0.0265
     57 H          13.0463    3.0156    0.0000 H       1  UNL1        0.0265
     58 H          12.6477    2.3253    0.0000 H       1  UNL1        0.0265
     59 H          16.2549   -5.5920    0.0000 H       1  UNL1        0.0265
     60 H          15.4579   -5.5920    0.0000 H       1  UNL1        0.0265
     61 H          18.0560   -7.0419    0.0000 H       1  UNL1        0.0265
     62 H          18.8530   -7.0419    0.0000 H       1  UNL1        0.0265
     63 H          12.1803    1.5156    0.0000 H       1  UNL1        0.0265
     64 H          11.7817    0.8254    0.0000 H       1  UNL1        0.0265
     65 H          14.3364    2.3504    0.0000 H       1  UNL1        0.0265
     66 H          14.7349    3.0407    0.0000 H       1  UNL1        0.0265
     67 H          14.5919   -7.0419    0.0000 H       1  UNL1        0.0265
     68 H          15.3889   -7.0419    0.0000 H       1  UNL1        0.0265
     69 H          19.7190   -5.5920    0.0000 H       1  UNL1        0.0265
     70 H          18.9220   -5.5920    0.0000 H       1  UNL1        0.0265
     71 H          12.6044   -0.6496    0.0000 H       1  UNL1        0.0265
     72 H          13.0029    0.0407    0.0000 H       1  UNL1        0.0265
     73 H          13.9123    4.5156    0.0000 H       1  UNL1        0.0265
     74 H          13.5138    3.8254    0.0000 H       1  UNL1        0.0265
     75 H          14.5229   -5.5920    0.0000 H       1  UNL1        0.0265
     76 H          13.7258   -5.5920    0.0000 H       1  UNL1        0.0265
     77 H          11.3142    0.0156    0.0000 H       1  UNL1        0.0265
     78 H          10.9157   -0.6746    0.0000 H       1  UNL1        0.0265
     79 H          19.7880   -7.0419    0.0000 H       1  UNL1        0.0265
     80 H          20.5851   -7.0419    0.0000 H       1  UNL1        0.0265
     81 H          15.2024    3.8504    0.0000 H       1  UNL1        0.0265
     82 H          15.6010    4.5407    0.0000 H       1  UNL1        0.0265
     83 H          12.8598   -7.0419    0.0000 H       1  UNL1        0.0265
     84 H          13.6569   -7.0419    0.0000 H       1  UNL1        0.0265
     85 H          11.7383   -2.1496    0.0000 H       1  UNL1        0.0265
     86 H          12.1369   -1.4593    0.0000 H       1  UNL1        0.0265
     87 H          21.4511   -5.5920    0.0000 H       1  UNL1        0.0265
     88 H          20.6540   -5.5920    0.0000 H       1  UNL1        0.0265
     89 H          14.7783    6.0156    0.0000 H       1  UNL1        0.0265
     90 H          14.3798    5.3254    0.0000 H       1  UNL1        0.0265
     91 H           3.3335   -7.5419    0.0000 H       1  UNL1        0.0838
     92 H           4.1306   -7.5419    0.0000 H       1  UNL1        0.0838
     93 H          12.7908   -5.5920    0.0000 H       1  UNL1        0.0270
     94 H          11.9938   -5.5920    0.0000 H       1  UNL1        0.0270
     95 H          10.4482   -1.4844    0.0000 H       1  UNL1        0.0270
     96 H          10.0497   -2.1747    0.0000 H       1  UNL1        0.0270
     97 H          21.5201   -7.0419    0.0000 H       1  UNL1        0.0265
     98 H          22.3171   -7.0419    0.0000 H       1  UNL1        0.0265
     99 H          16.0685    5.3504    0.0000 H       1  UNL1        0.0265
    100 H          16.4670    6.0407    0.0000 H       1  UNL1        0.0265
    101 H           2.3100   -5.5300    0.0000 H       1  UNL1        0.0778
    102 H           1.4631   -5.7570    0.0000 H       1  UNL1        0.0778
    103 H           1.6900   -6.6039    0.0000 H       1  UNL1        0.0778
    104 H           1.8291   -7.1230    0.0000 H       1  UNL1        0.0778
    105 H           2.0560   -7.9700    0.0000 H       1  UNL1        0.0778
    106 H           2.9030   -7.7430    0.0000 H       1  UNL1        0.0778
    107 H           3.9030   -6.0110    0.0000 H       1  UNL1        0.0778
    108 H           3.6760   -5.1640    0.0000 H       1  UNL1        0.0778
    109 H           2.8291   -5.3910    0.0000 H       1  UNL1        0.0778
    110 H           4.9966   -6.0920    0.0000 H       1  UNL1        0.0618
    111 H           4.1996   -6.0920    0.0000 H       1  UNL1        0.0618
    112 H          11.1278   -7.0419    0.0000 H       1  UNL1        0.0377
    113 H          11.9248   -7.0419    0.0000 H       1  UNL1        0.0377
    114 H          10.8723   -3.6496    0.0000 H       1  UNL1        0.0377
    115 H          11.2708   -2.9593    0.0000 H       1  UNL1        0.0377
    116 H          23.1831   -5.5920    0.0000 H       1  UNL1        0.0263
    117 H          22.3861   -5.5920    0.0000 H       1  UNL1        0.0263
    118 H          15.6444    7.5156    0.0000 H       1  UNL1        0.0263
    119 H          15.2458    6.8254    0.0000 H       1  UNL1        0.0263
    120 H           9.4651   -5.7570    0.0000 H       1  UNL1        0.0792
    121 H          23.3406   -7.1039    0.0000 H       1  UNL1        0.0230
    122 H          24.1876   -6.8770    0.0000 H       1  UNL1        0.0230
    123 H          23.9606   -6.0300    0.0000 H       1  UNL1        0.0230
    124 H          17.0324    6.8961    0.0000 H       1  UNL1        0.0230
    125 H          17.2594    7.7430    0.0000 H       1  UNL1        0.0230
    126 H          16.4124    7.9700    0.0000 H       1  UNL1        0.0230
    127 H           8.7162   -4.4844    0.0000 H       1  UNL1        0.0736
    128 H           8.3176   -5.1746    0.0000 H       1  UNL1        0.0736
    129 H           7.6636   -7.0419    0.0000 H       1  UNL1        0.0602
    130 H           8.4607   -7.0419    0.0000 H       1  UNL1        0.0602
@<TRIPOS>UNITY_ATOM_ATTR
8 1
charge -1
10 1
charge 1
@<TRIPOS>BOND
     1     1     2    1
     2     1     5    1
     3     1     8    1
     4     1     9    2
     5     2    39    1
     6    44     3    1
     7     3    45    1
     8     4    47    1
     9     4    49    1
    10     5    50    1
    11     6    45    2
    12     7    47    2
    13    10    31    1
    14    10    36    1
    15    10    37    1
    16    10    38    1
    17    11    12    1
    18    11    15    1
    19    11    51    1
    20    11    52    1
    21    12    16    1
    22    12    53    1
    23    12    54    1
    24    13    14    1
    25    13    17    1
    26    13    55    1
    27    13    56    1
    28    14    18    1
    29    14    57    1
    30    14    58    1
    31    15    19    1
    32    15    59    1
    33    15    60    1
    34    16    20    1
    35    16    61    1
    36    16    62    1
    37    17    21    1
    38    17    63    1
    39    17    64    1
    40    18    22    1
    41    18    65    1
    42    18    66    1
    43    19    23    1
    44    19    67    1
    45    19    68    1
    46    20    25    1
    47    20    69    1
    48    20    70    1
    49    21    24    1
    50    21    71    1
    51    21    72    1
    52    22    26    1
    53    22    73    1
    54    22    74    1
    55    23    27    1
    56    23    75    1
    57    23    76    1
    58    24    28    1
    59    24    77    1
    60    24    78    1
    61    25    29    1
    62    25    79    1
    63    25    80    1
    64    26    30    1
    65    26    81    1
    66    26    82    1
    67    27    32    1
    68    27    83    1
    69    27    84    1
    70    28    33    1
    71    28    85    1
    72    28    86    1
    73    29    34    1
    74    29    87    1
    75    29    88    1
    76    30    35    1
    77    30    89    1
    78    30    90    1
    79    31    39    1
    80    31    91    1
    81    31    92    1
    82    32    40    1
    83    32    93    1
    84    32    94    1
    85    33    41    1
    86    33    95    1
    87    33    96    1
    88    34    42    1
    89    34    97    1
    90    34    98    1
    91    35    43    1
    92    35    99    1
    93    35   100    1
    94    36   101    1
    95    36   102    1
    96    36   103    1
    97    37   104    1
    98    37   105    1
    99    37   106    1
   100    38   107    1
   101    38   108    1
   102    38   109    1
   103    39   110    1
   104    39   111    1
   105    40    45    1
   106    40   112    1
   107    40   113    1
   108    41    47    1
   109    41   114    1
   110    41   115    1
   111    42    46    1
   112    42   116    1
   113    42   117    1
   114    43    48    1
   115    43   118    1
   116    43   119    1
   117    44    49    1
   118    44    50    1
   119    44   120    1
   120    46   121    1
   121    46   122    1
   122    46   123    1
   123    48   124    1
   124    48   125    1
   125    48   126    1
   126    49   127    1
   127    49   128    1
   128    50   129    1
   129    50   130    1
