@<TRIPOS>MOLECULE
IMPHY005196
 54 57 0 0 0
SMALL
GASTEIGER

@<TRIPOS>ATOM
      1 O           6.6847    0.3310    0.0000 O.3     1  UNL1       -0.4574
      2 O           6.3981    2.0346    0.0000 O.3     1  UNL1       -0.3715
      3 O           5.7110   -1.1809    0.0000 O.2     1  UNL1       -0.2498
      4 O           4.6497   -2.0000    0.0000 O.3     1  UNL1       -0.5031
      5 O           2.8680   -0.9895    0.0000 O.3     1  UNL1       -0.5031
      6 C           7.2641   -0.4654    0.0000 C.3     1  UNL1        0.0240
      7 C           6.3981   -0.9654    0.0000 C.3     1  UNL1        0.1031
      8 C           8.1741   -0.9722    0.0000 C.3     1  UNL1       -0.0273
      9 C           7.2641    0.5346    0.0000 C.3     1  UNL1        0.1377
     10 C           6.3820   -2.0069    0.0000 C.3     1  UNL1       -0.0326
     11 C           8.1821   -2.0138    0.0000 C.3     1  UNL1       -0.0474
     12 C           5.5320   -0.4654    0.0000 C.ar    1  UNL1        0.0207
     13 C           7.2800   -2.5346    0.0000 C.3     1  UNL1       -0.0512
     14 C           6.3981    1.0346    0.0000 C.3     1  UNL1        0.1208
     15 C           6.2847   -0.3618    0.0000 C.2     1  UNL1        0.3186
     16 C           5.5320    0.5346    0.0000 C.ar    1  UNL1       -0.0072
     17 C           9.1740   -0.9607    0.0000 C.3     1  UNL1       -0.0594
     18 C           8.6640   -0.1005    0.0000 C.3     1  UNL1       -0.0594
     19 C           4.6381   -1.0000    0.0000 C.ar    1  UNL1        0.1632
     20 C           4.6381    1.0693    0.0000 C.ar    1  UNL1       -0.0486
     21 C           3.7320    0.5554    0.0000 C.ar    1  UNL1        0.0006
     22 C           3.7320   -0.4862    0.0000 C.ar    1  UNL1        0.1620
     23 C           2.8680    1.0588    0.0000 C.3     1  UNL1       -0.0179
     24 C           7.2641    2.5346    0.0000 C.3     1  UNL1        0.0374
     25 C           2.8718    2.0588    0.0000 C.3     1  UNL1       -0.0585
     26 C           2.0000    0.5621    0.0000 C.3     1  UNL1       -0.0585
     27 H           8.0002   -0.0404    0.0000 H       1  UNL1        0.0357
     28 H           7.6891    1.2708    0.0000 H       1  UNL1        0.0767
     29 H           5.7729   -1.8914    0.0000 H       1  UNL1        0.0279
     30 H           6.1640   -2.5873    0.0000 H       1  UNL1        0.0279
     31 H           8.3957   -2.5959    0.0000 H       1  UNL1        0.0271
     32 H           8.7922   -1.9030    0.0000 H       1  UNL1        0.0271
     33 H           6.9350    1.3446    0.0000 H       1  UNL1        0.0684
     34 H           6.8791   -3.0075    0.0000 H       1  UNL1        0.0266
     35 H           7.6774   -3.0106    0.0000 H       1  UNL1        0.0266
     36 H           9.1812   -1.5806    0.0000 H       1  UNL1        0.0235
     37 H           9.7940   -0.9535    0.0000 H       1  UNL1        0.0235
     38 H           9.1669   -0.3407    0.0000 H       1  UNL1        0.0235
     39 H           9.2045   -0.4042    0.0000 H       1  UNL1        0.0235
     40 H           8.9678    0.4400    0.0000 H       1  UNL1        0.0235
     41 H           8.1236    0.2033    0.0000 H       1  UNL1        0.0235
     42 H           4.6453    1.6892    0.0000 H       1  UNL1        0.0625
     43 H           2.8656    0.4388    0.0000 H       1  UNL1        0.0345
     44 H           7.5741    1.9977    0.0000 H       1  UNL1        0.0524
     45 H           7.8010    2.8446    0.0000 H       1  UNL1        0.0524
     46 H           6.9541    3.0716    0.0000 H       1  UNL1        0.0524
     47 H           4.1164   -2.3162    0.0000 H       1  UNL1        0.2923
     48 H           2.8703   -1.6095    0.0000 H       1  UNL1        0.2923
     49 H           1.6921    1.1002    0.0000 H       1  UNL1        0.0235
     50 H           1.4619    0.2542    0.0000 H       1  UNL1        0.0235
     51 H           2.3079    0.0240    0.0000 H       1  UNL1        0.0235
     52 H           3.4918    2.0564    0.0000 H       1  UNL1        0.0235
     53 H           2.8742    2.6788    0.0000 H       1  UNL1        0.0235
     54 H           2.2518    2.0612    0.0000 H       1  UNL1        0.0235
@<TRIPOS>BOND
     1     1     9    1
     2     1    15    1
     3    14     2    1
     4     2    24    1
     5     3    15    2
     6     4    19    1
     7     4    47    1
     8     5    22    1
     9     5    48    1
    10     6     7    1
    11     6     8    1
    12     6     9    1
    13     6    27    1
    14     7    10    1
    15     7    12    1
    16     7    15    1
    17     8    11    1
    18     8    17    1
    19     8    18    1
    20     9    14    1
    21     9    28    1
    22    10    13    1
    23    10    29    1
    24    10    30    1
    25    11    13    1
    26    11    31    1
    27    11    32    1
    28    12    16   ar
    29    12    19   ar
    30    13    34    1
    31    13    35    1
    32    14    16    1
    33    14    33    1
    34    16    20   ar
    35    17    36    1
    36    17    37    1
    37    17    38    1
    38    18    39    1
    39    18    40    1
    40    18    41    1
    41    19    22   ar
    42    20    21   ar
    43    20    42    1
    44    21    22   ar
    45    21    23    1
    46    23    25    1
    47    23    26    1
    48    23    43    1
    49    24    44    1
    50    24    45    1
    51    24    46    1
    52    25    52    1
    53    25    53    1
    54    25    54    1
    55    26    49    1
    56    26    50    1
    57    26    51    1
