@<TRIPOS>MOLECULE
IMPHY009655
 36 36 0 0 0
SMALL
GASTEIGER

@<TRIPOS>ATOM
      1 O           5.0298   -0.2427    0.0000 O.3     1  UNL1       -0.3363
      2 O           4.8086    1.1541    0.0000 O.3     1  UNL1       -0.3446
      3 O           2.4608    0.0663    0.0000 O.3     1  UNL1       -0.3837
      4 O           3.1330   -2.0028    0.0000 O.3     1  UNL1       -0.3864
      5 O           4.0398    2.0676    0.0000 O.3     1  UNL1       -0.3896
      6 O           6.3031   -1.8983    0.0000 O.3     1  UNL1       -0.3924
      7 C           4.2208    0.3451    0.0000 C.3     1  UNL1        0.2229
      8 C           3.4118   -0.2427    0.0000 C.3     1  UNL1        0.1394
      9 C           3.7208   -1.1938    0.0000 C.3     1  UNL1        0.1145
     10 C           4.7208   -1.1938    0.0000 C.3     1  UNL1        0.1134
     11 C           3.6330    1.1541    0.0000 C.3     1  UNL1        0.1008
     12 C           5.3086   -2.0028    0.0000 C.3     1  UNL1        0.0730
     13 C           5.8031    1.0495    0.0000 C.3     1  UNL1        0.0511
     14 C           6.3909    1.8586    0.0000 C.3     1  UNL1       -0.0296
     15 C           7.3854    1.7540    0.0000 C.3     1  UNL1       -0.0538
     16 C           7.9732    2.5630    0.0000 C.3     1  UNL1       -0.0652
     17 H           3.3148    0.3696    0.0000 H       1  UNL1        0.0675
     18 H           3.1085   -1.0968    0.0000 H       1  UNL1        0.0648
     19 H           5.3332   -1.0968    0.0000 H       1  UNL1        0.0647
     20 H           3.1190    1.5008    0.0000 H       1  UNL1        0.0612
     21 H           3.2024    0.7081    0.0000 H       1  UNL1        0.0612
     22 H           4.7514   -2.2746    0.0000 H       1  UNL1        0.0584
     23 H           5.4795   -2.5988    0.0000 H       1  UNL1        0.0584
     24 H           5.6322    0.4536    0.0000 H       1  UNL1        0.0561
     25 H           6.3604    0.7778    0.0000 H       1  UNL1        0.0561
     26 H           2.0000   -0.3486    0.0000 H       1  UNL1        0.2101
     27 H           3.3852   -2.5692    0.0000 H       1  UNL1        0.2100
     28 H           6.5618    2.4545    0.0000 H       1  UNL1        0.0287
     29 H           5.8337    2.1304    0.0000 H       1  UNL1        0.0287
     30 H           3.6754    2.5692    0.0000 H       1  UNL1        0.2096
     31 H           7.2145    1.1580    0.0000 H       1  UNL1        0.0263
     32 H           7.9427    1.4822    0.0000 H       1  UNL1        0.0263
     33 H           6.6676   -2.3999    0.0000 H       1  UNL1        0.2095
     34 H           8.4748    2.1986    0.0000 H       1  UNL1        0.0230
     35 H           8.3376    3.0646    0.0000 H       1  UNL1        0.0230
     36 H           7.4716    2.9275    0.0000 H       1  UNL1        0.0230
@<TRIPOS>BOND
     1     1     7    1
     2     1    10    1
     3     7     2    1
     4     2    13    1
     5     8     3    1
     6     3    26    1
     7     9     4    1
     8     4    27    1
     9     5    11    1
    10     5    30    1
    11     6    12    1
    12     6    33    1
    13     7     8    1
    14     7    11    1
    15     8     9    1
    16     8    17    1
    17     9    10    1
    18     9    18    1
    19    10    12    1
    20    10    19    1
    21    11    20    1
    22    11    21    1
    23    12    22    1
    24    12    23    1
    25    13    14    1
    26    13    24    1
    27    13    25    1
    28    14    15    1
    29    14    28    1
    30    14    29    1
    31    15    16    1
    32    15    31    1
    33    15    32    1
    34    16    34    1
    35    16    35    1
    36    16    36    1
