@<TRIPOS>MOLECULE
IMPHY006644
 242 254 0 0 0
SMALL
GASTEIGER

@<TRIPOS>ATOM
      1 O           8.7161   -6.7268    0.0000 O.3     1  UNL1       -0.3418
      2 O           6.9087   -5.6740    0.0000 O.3     1  UNL1       -0.3892
      3 O          11.2386   -0.4279    0.0000 O.3     1  UNL1       -0.3941
      4 O          10.8126    2.4963    0.0000 O.3     1  UNL1       -0.4318
      5 O          11.1603   -6.0351    0.0000 O.3     1  UNL1       -0.4802
      6 O          11.1469   -4.3031    0.0000 O.2     1  UNL1       -0.2503
      7 O          11.3532    1.0627    0.0000 O.2     1  UNL1       -0.2501
      8 O           6.9841   -6.7268    0.0000 O.3     1  UNL1       -0.3405
      9 O           9.1783    3.0698    0.0000 O.3     1  UNL1       -0.3327
     10 O           8.7161   -8.7268    0.0000 O.3     1  UNL1       -0.3841
     11 O           6.9841   -9.7268    0.0000 O.3     1  UNL1       -0.3864
     12 O          11.4749    4.3834    0.0000 O.3     1  UNL1       -0.3365
     13 O           5.2520   -8.7268    0.0000 O.3     1  UNL1       -0.3865
     14 O          10.1717    5.9006    0.0000 O.3     1  UNL1       -0.3389
     15 O           8.2062    5.5305    0.0000 O.3     1  UNL1       -0.4529
     16 O           4.3860   -7.2268    0.0000 O.3     1  UNL1       -0.3924
     17 O          11.7954    2.6813    0.0000 O.3     1  UNL1       -0.3431
     18 O           9.0431    7.2144    0.0000 O.3     1  UNL1       -0.3431
     19 O          13.4404    4.7535    0.0000 O.3     1  UNL1       -0.3841
     20 O          14.7436    3.2364    0.0000 O.3     1  UNL1       -0.3400
     21 O          11.6888    7.2038    0.0000 O.3     1  UNL1       -0.3841
     22 O          14.0813    1.3492    0.0000 O.3     1  UNL1       -0.3402
     23 O           6.8924    4.4019    0.0000 O.2     1  UNL1       -0.2456
     24 O          11.3188    9.1692    0.0000 O.3     1  UNL1       -0.3864
     25 O           9.4316    9.8315    0.0000 O.3     1  UNL1       -0.3866
     26 O          14.4231    4.9385    0.0000 O.3     1  UNL1       -0.3431
     27 O          15.4209    0.2513    0.0000 O.3     1  UNL1       -0.3460
     28 O          16.7090    3.6064    0.0000 O.3     1  UNL1       -0.3841
     29 O          12.8135   -0.1976    0.0000 O.3     1  UNL1       -0.3841
     30 O          17.3713    5.4936    0.0000 O.3     1  UNL1       -0.3864
     31 O          16.0681    7.0107    0.0000 O.3     1  UNL1       -0.3866
     32 O          13.5193   -2.0690    0.0000 O.3     1  UNL1       -0.3864
     33 O          15.4928   -2.3935    0.0000 O.3     1  UNL1       -0.3405
     34 O          17.1134   -1.7823    0.0000 O.3     1  UNL1       -0.3405
     35 O           2.9827    8.9533    0.0000 O.3     1  UNL1       -0.4951
     36 O          16.1985   -4.2648    0.0000 O.3     1  UNL1       -0.3841
     37 O          18.1720   -4.5893    0.0000 O.3     1  UNL1       -0.3864
     38 O          19.4398   -3.0425    0.0000 O.3     1  UNL1       -0.3865
     39 O          19.7208   -1.3334    0.0000 O.3     1  UNL1       -0.3924
     40 C           9.6172   -2.0266    0.0000 C.3     1  UNL1       -0.0170
     41 C           8.7531   -2.5299    0.0000 C.3     1  UNL1       -0.0256
     42 C           8.7410   -3.5715    0.0000 C.3     1  UNL1       -0.0221
     43 C           9.6133   -1.0266    0.0000 C.3     1  UNL1        0.0208
     44 C           9.6411   -4.0958    0.0000 C.3     1  UNL1       -0.0172
     45 C          10.5291   -2.5299    0.0000 C.3     1  UNL1       -0.0462
     46 C           8.7454   -0.5299    0.0000 C.2     1  UNL1       -0.0604
     47 C          10.5412   -3.5715    0.0000 C.3     1  UNL1       -0.0481
     48 C           9.6537   -5.1807    0.0000 C.3     1  UNL1        0.0966
     49 C           8.7253    0.5115    0.0000 C.3     1  UNL1       -0.0031
     50 C           7.8852   -2.0333    0.0000 C.3     1  UNL1       -0.0306
     51 C           7.7911   -4.0958    0.0000 C.3     1  UNL1       -0.0184
     52 C          10.5214   -0.5162    0.0000 C.3     1  UNL1       -0.0400
     53 C           9.6213    1.0427    0.0000 C.3     1  UNL1        0.0744
     54 C          10.6013   -1.8491    0.0000 C.3     1  UNL1       -0.0584
     55 C          10.5254    0.5254    0.0000 C.3     1  UNL1       -0.0358
     56 C           8.7161   -5.7268    0.0000 C.3     1  UNL1        0.1033
     57 C           7.8813   -1.0333    0.0000 C.2     1  UNL1       -0.0836
     58 C           7.7786   -5.1807    0.0000 C.3     1  UNL1        0.0830
     59 C           7.8770   -3.0682    0.0000 C.3     1  UNL1       -0.0589
     60 C          10.5988   -1.1964    0.0000 C.3     1  UNL1        0.0540
     61 C           7.7714    1.0284    0.0000 C.3     1  UNL1       -0.0403
     62 C           9.6255    2.1277    0.0000 C.3     1  UNL1       -0.0362
     63 C           7.7505    2.1132    0.0000 C.3     1  UNL1       -0.0343
     64 C           8.6838    2.6666    0.0000 C.3     1  UNL1       -0.0468
     65 C          10.1603   -6.0428    0.0000 C.3     1  UNL1       -0.0466
     66 C          10.6536   -5.1730    0.0000 C.2     1  UNL1        0.3136
     67 C          10.4815    1.5527    0.0000 C.2     1  UNL1        0.3161
     68 C           7.2372    2.9715    0.0000 C.3     1  UNL1       -0.0598
     69 C           6.7506    2.0978    0.0000 C.3     1  UNL1       -0.0598
     70 C           7.8501   -7.2268    0.0000 C.3     1  UNL1        0.1884
     71 C           7.8501   -8.2268    0.0000 C.3     1  UNL1        0.1341
     72 C          10.1610    3.2548    0.0000 C.3     1  UNL1        0.2341
     73 C           6.9841   -8.7268    0.0000 C.3     1  UNL1        0.1141
     74 C           6.1180   -7.2268    0.0000 C.3     1  UNL1        0.1130
     75 C          10.4922    4.1984    0.0000 C.3     1  UNL1        0.1534
     76 C           6.1180   -8.2268    0.0000 C.3     1  UNL1        0.1119
     77 C           9.8406    4.9570    0.0000 C.3     1  UNL1        0.1330
     78 C           8.5267    3.8284    0.0000 C.3     1  UNL1        0.0994
     79 C           8.8578    4.7720    0.0000 C.3     1  UNL1        0.1578
     80 C           5.2520   -6.7268    0.0000 C.3     1  UNL1        0.0730
     81 C           7.5440    3.6434    0.0000 C.3     1  UNL1       -0.0350
     82 C          12.1265    3.6249    0.0000 C.3     1  UNL1        0.1885
     83 C           9.9867    6.8833    0.0000 C.3     1  UNL1        0.1884
     84 C          13.1092    3.8099    0.0000 C.3     1  UNL1        0.1345
     85 C          13.7608    3.0513    0.0000 C.3     1  UNL1        0.1209
     86 C          10.7452    7.5349    0.0000 C.3     1  UNL1        0.1341
     87 C           7.2235    5.3455    0.0000 C.2     1  UNL1        0.3324
     88 C          12.4470    1.9227    0.0000 C.3     1  UNL1        0.0877
     89 C          13.4297    2.1078    0.0000 C.3     1  UNL1        0.1164
     90 C          10.5602    8.5176    0.0000 C.3     1  UNL1        0.1140
     91 C           8.8580    8.1972    0.0000 C.3     1  UNL1        0.0873
     92 C           9.6166    8.8488    0.0000 C.3     1  UNL1        0.1095
     93 C          12.1158    0.9792    0.0000 C.3     1  UNL1       -0.0360
     94 C           6.5719    6.1041    0.0000 C.2     1  UNL1        0.0231
     95 C           7.9145    8.5283    0.0000 C.3     1  UNL1       -0.0361
     96 C          15.0747    4.1800    0.0000 C.3     1  UNL1        0.1883
     97 C          14.4342    0.4135    0.0000 C.3     1  UNL1        0.1880
     98 C           5.5891    5.9190    0.0000 C.2     1  UNL1       -0.0478
     99 C          16.0574    4.3650    0.0000 C.3     1  UNL1        0.1341
    100 C          13.8003   -0.3599    0.0000 C.3     1  UNL1        0.1341
    101 C          16.3886    5.3086    0.0000 C.3     1  UNL1        0.1140
    102 C          14.7542    5.8821    0.0000 C.3     1  UNL1        0.0873
    103 C           4.9375    6.6776    0.0000 C.ar    1  UNL1       -0.0246
    104 C          15.7370    6.0671    0.0000 C.3     1  UNL1        0.1095
    105 C          14.1532   -1.2956    0.0000 C.3     1  UNL1        0.1141
    106 C          15.7738   -0.6844    0.0000 C.3     1  UNL1        0.0796
    107 C          15.1399   -1.4578    0.0000 C.3     1  UNL1        0.1134
    108 C          14.1026    6.6407    0.0000 C.3     1  UNL1       -0.0361
    109 C           3.9548    6.4926    0.0000 C.ar    1  UNL1       -0.0511
    110 C           5.2687    7.6212    0.0000 C.ar    1  UNL1       -0.0511
    111 C           3.3032    7.2511    0.0000 C.ar    1  UNL1       -0.0194
    112 C           4.6171    8.3797    0.0000 C.ar    1  UNL1       -0.0194
    113 C          16.4795   -2.5557    0.0000 C.3     1  UNL1        0.1884
    114 C           3.6343    8.1947    0.0000 C.ar    1  UNL1        0.1201
    115 C          16.8324   -3.4914    0.0000 C.3     1  UNL1        0.1341
    116 C          17.8191   -3.6537    0.0000 C.3     1  UNL1        0.1141
    117 C          18.1001   -1.9446    0.0000 C.3     1  UNL1        0.1130
    118 C          18.4530   -2.8802    0.0000 C.3     1  UNL1        0.1119
    119 C          18.7340   -1.1711    0.0000 C.3     1  UNL1        0.0730
    120 C           2.0000    8.7682    0.0000 C.3     1  UNL1        0.0788
    121 H           9.4876   -2.9578    0.0000 H       1  UNL1        0.0315
    122 H          10.3805   -4.5151    0.0000 H       1  UNL1        0.0317
    123 H          11.1412   -2.6289    0.0000 H       1  UNL1        0.0271
    124 H          10.7314   -1.9438    0.0000 H       1  UNL1        0.0271
    125 H          10.7570   -4.1527    0.0000 H       1  UNL1        0.0269
    126 H          11.1508   -3.4583    0.0000 H       1  UNL1        0.0269
    127 H           7.9992    0.0696    0.0000 H       1  UNL1        0.0357
    128 H           7.2742   -1.9280    0.0000 H       1  UNL1        0.0310
    129 H           7.6753   -2.6167    0.0000 H       1  UNL1        0.0310
    130 H           7.5888   -3.5097    0.0000 H       1  UNL1        0.0296
    131 H           7.1791   -4.1948    0.0000 H       1  UNL1        0.0296
    132 H          10.7282   -1.1007    0.0000 H       1  UNL1        0.0275
    133 H          11.1326   -0.4125    0.0000 H       1  UNL1        0.0275
    134 H          10.7113   -2.4593    0.0000 H       1  UNL1        0.0235
    135 H          11.2115   -1.7391    0.0000 H       1  UNL1        0.0235
    136 H          10.4913   -1.2390    0.0000 H       1  UNL1        0.0235
    137 H          11.1358    0.4169    0.0000 H       1  UNL1        0.0276
    138 H          10.7367    1.1083    0.0000 H       1  UNL1        0.0276
    139 H           9.2537   -6.0358    0.0000 H       1  UNL1        0.0634
    140 H           7.3432   -0.7253    0.0000 H       1  UNL1        0.0572
    141 H           7.7750   -5.8007    0.0000 H       1  UNL1        0.0619
    142 H           8.1890   -2.5324    0.0000 H       1  UNL1        0.0235
    143 H           7.3412   -2.7561    0.0000 H       1  UNL1        0.0235
    144 H           7.5649   -3.6039    0.0000 H       1  UNL1        0.0235
    145 H          10.3890   -1.7799    0.0000 H       1  UNL1        0.0566
    146 H          11.1369   -1.5044    0.0000 H       1  UNL1        0.0566
    147 H           7.1586    1.1228    0.0000 H       1  UNL1        0.0276
    148 H           7.5736    0.4408    0.0000 H       1  UNL1        0.0276
    149 H          10.2359    2.0192    0.0000 H       1  UNL1        0.0276
    150 H           9.8368    2.7106    0.0000 H       1  UNL1        0.0276
    151 H           9.0792    3.1441    0.0000 H       1  UNL1        0.0271
    152 H           8.2810    3.1379    0.0000 H       1  UNL1        0.0271
    153 H           9.6258   -6.3570    0.0000 H       1  UNL1        0.0241
    154 H          10.4745   -6.5774    0.0000 H       1  UNL1        0.0241
    155 H          10.6949   -5.7287    0.0000 H       1  UNL1        0.0241
    156 H           7.7693    3.2897    0.0000 H       1  UNL1        0.0235
    157 H           6.9189    3.5036    0.0000 H       1  UNL1        0.0235
    158 H           6.7410    2.7178    0.0000 H       1  UNL1        0.0235
    159 H           6.1307    2.0883    0.0000 H       1  UNL1        0.0235
    160 H           6.7602    1.4779    0.0000 H       1  UNL1        0.0235
    161 H           6.7051    2.6532    0.0000 H       1  UNL1        0.0235
    162 H           6.3742   -5.3599    0.0000 H       1  UNL1        0.2099
    163 H          11.8496   -0.5332    0.0000 H       1  UNL1        0.2094
    164 H           7.8501   -6.6068    0.0000 H       1  UNL1        0.0938
    165 H          11.7803   -6.0304    0.0000 H       1  UNL1        0.2951
    166 H           7.8501   -8.8468    0.0000 H       1  UNL1        0.0671
    167 H          10.7703    3.3696    0.0000 H       1  UNL1        0.1085
    168 H           6.4471   -9.0368    0.0000 H       1  UNL1        0.0648
    169 H           6.1180   -6.6068    0.0000 H       1  UNL1        0.0647
    170 H          10.6975    4.7834    0.0000 H       1  UNL1        0.0687
    171 H           5.5811   -7.9168    0.0000 H       1  UNL1        0.0647
    172 H           9.4366    5.4273    0.0000 H       1  UNL1        0.0663
    173 H           8.7161   -9.3468    0.0000 H       1  UNL1        0.2101
    174 H           8.3214    3.2434    0.0000 H       1  UNL1        0.0632
    175 H           8.2485    4.6572    0.0000 H       1  UNL1        0.0788
    176 H           5.6506   -6.2519    0.0000 H       1  UNL1        0.0584
    177 H           4.8535   -6.2519    0.0000 H       1  UNL1        0.0584
    178 H           6.4471  -10.0368    0.0000 H       1  UNL1        0.2100
    179 H           5.2520   -9.3468    0.0000 H       1  UNL1        0.2100
    180 H           7.4292    4.2526    0.0000 H       1  UNL1        0.0256
    181 H           6.9347    3.5286    0.0000 H       1  UNL1        0.0256
    182 H           7.6587    3.0341    0.0000 H       1  UNL1        0.0256
    183 H          11.5172    3.5102    0.0000 H       1  UNL1        0.0938
    184 H           3.8491   -6.9168    0.0000 H       1  UNL1        0.2095
    185 H          10.5717    6.6780    0.0000 H       1  UNL1        0.0938
    186 H          13.7185    3.9246    0.0000 H       1  UNL1        0.0671
    187 H          14.1648    2.5810    0.0000 H       1  UNL1        0.0651
    188 H          11.2155    7.9389    0.0000 H       1  UNL1        0.0671
    189 H          11.8377    1.8080    0.0000 H       1  UNL1        0.0621
    190 H          13.2244    1.5228    0.0000 H       1  UNL1        0.0650
    191 H          10.4455    9.1269    0.0000 H       1  UNL1        0.0648
    192 H           8.3877    7.7932    0.0000 H       1  UNL1        0.0621
    193 H          13.0364    5.2238    0.0000 H       1  UNL1        0.2101
    194 H           9.0316    9.0541    0.0000 H       1  UNL1        0.0646
    195 H          11.5308    1.1845    0.0000 H       1  UNL1        0.0255
    196 H          11.9105    0.3941    0.0000 H       1  UNL1        0.0255
    197 H          12.7009    0.7739    0.0000 H       1  UNL1        0.0255
    198 H           6.7772    6.6891    0.0000 H       1  UNL1        0.0689
    199 H          12.1591    7.6078    0.0000 H       1  UNL1        0.2101
    200 H           8.1198    9.1133    0.0000 H       1  UNL1        0.0255
    201 H           7.3294    8.7336    0.0000 H       1  UNL1        0.0255
    202 H           7.7092    7.9433    0.0000 H       1  UNL1        0.0255
    203 H          14.4654    4.0652    0.0000 H       1  UNL1        0.0938
    204 H          11.2040    9.7785    0.0000 H       1  UNL1        0.2100
    205 H          13.8224    0.5141    0.0000 H       1  UNL1        0.0937
    206 H           8.8466   10.0368    0.0000 H       1  UNL1        0.2100
    207 H           5.3838    5.3340    0.0000 H       1  UNL1        0.0626
    208 H          15.8521    3.7800    0.0000 H       1  UNL1        0.0671
    209 H          13.4073   -0.8394    0.0000 H       1  UNL1        0.0671
    210 H          16.7926    4.8383    0.0000 H       1  UNL1        0.0648
    211 H          14.1449    5.7674    0.0000 H       1  UNL1        0.0621
    212 H          16.3463    6.1818    0.0000 H       1  UNL1        0.0646
    213 H          14.3720   -1.8757    0.0000 H       1  UNL1        0.0648
    214 H          16.1778   -1.1547    0.0000 H       1  UNL1        0.0587
    215 H          16.3071   -0.3682    0.0000 H       1  UNL1        0.0587
    216 H          15.7517   -1.5584    0.0000 H       1  UNL1        0.0647
    217 H          16.5037    3.0214    0.0000 H       1  UNL1        0.2101
    218 H          12.5947    0.3825    0.0000 H       1  UNL1        0.2101
    219 H          14.5729    7.0447    0.0000 H       1  UNL1        0.0255
    220 H          13.6986    7.1110    0.0000 H       1  UNL1        0.0255
    221 H          13.6323    6.2367    0.0000 H       1  UNL1        0.0255
    222 H           3.7495    5.9075    0.0000 H       1  UNL1        0.0625
    223 H           5.8780    7.7359    0.0000 H       1  UNL1        0.0625
    224 H          17.5766    6.0786    0.0000 H       1  UNL1        0.2100
    225 H          15.6641    7.4810    0.0000 H       1  UNL1        0.2100
    226 H          12.9075   -1.9684    0.0000 H       1  UNL1        0.2100
    227 H           2.6939    7.1364    0.0000 H       1  UNL1        0.0654
    228 H           4.8224    8.9648    0.0000 H       1  UNL1        0.0654
    229 H          16.0865   -3.0353    0.0000 H       1  UNL1        0.0938
    230 H          17.8273   -3.5920    0.0000 H       1  UNL1        0.0671
    231 H          18.4309   -3.7543    0.0000 H       1  UNL1        0.0648
    232 H          17.8814   -1.3644    0.0000 H       1  UNL1        0.0647
    233 H          18.8460   -2.4007    0.0000 H       1  UNL1        0.0647
    234 H          16.4173   -4.8450    0.0000 H       1  UNL1        0.2101
    235 H          18.9393   -0.5861    0.0000 H       1  UNL1        0.0584
    236 H          18.1935   -0.8674    0.0000 H       1  UNL1        0.0584
    237 H           1.8853    9.3776    0.0000 H       1  UNL1        0.0660
    238 H           1.3907    8.6535    0.0000 H       1  UNL1        0.0660
    239 H           2.1147    8.1590    0.0000 H       1  UNL1        0.0660
    240 H          18.7838   -4.6899    0.0000 H       1  UNL1        0.2100
    241 H          19.6585   -3.6226    0.0000 H       1  UNL1        0.2100
    242 H          20.1138   -0.8539    0.0000 H       1  UNL1        0.2095
@<TRIPOS>BOND
     1    56     1    1
     2    70     1    1
     3    58     2    1
     4     2   162    1
     5     3    60    1
     6     3   163    1
     7     4    67    1
     8    72     4    1
     9     5    66    1
    10     5   165    1
    11     6    66    2
    12     7    67    2
    13     8    70    1
    14     8    74    1
    15     9    72    1
    16     9    78    1
    17    71    10    1
    18    10   173    1
    19    73    11    1
    20    11   178    1
    21    75    12    1
    22    82    12    1
    23    76    13    1
    24    13   179    1
    25    77    14    1
    26    83    14    1
    27    79    15    1
    28    15    87    1
    29    16    80    1
    30    16   184    1
    31    17    82    1
    32    17    88    1
    33    18    83    1
    34    18    91    1
    35    84    19    1
    36    19   193    1
    37    85    20    1
    38    96    20    1
    39    86    21    1
    40    21   199    1
    41    89    22    1
    42    97    22    1
    43    23    87    2
    44    90    24    1
    45    24   204    1
    46    92    25    1
    47    25   206    1
    48    26    96    1
    49    26   102    1
    50    27    97    1
    51    27   106    1
    52    99    28    1
    53    28   217    1
    54   100    29    1
    55    29   218    1
    56   101    30    1
    57    30   224    1
    58   104    31    1
    59    31   225    1
    60   105    32    1
    61    32   226    1
    62   107    33    1
    63   113    33    1
    64    34   113    1
    65    34   117    1
    66    35   114    1
    67    35   120    1
    68   115    36    1
    69    36   234    1
    70   116    37    1
    71    37   240    1
    72   118    38    1
    73    38   241    1
    74    39   119    1
    75    39   242    1
    76    40    41    1
    77    40    43    1
    78    40    45    1
    79    40    54    1
    80    41    42    1
    81    41    50    1
    82    41   121    1
    83    42    44    1
    84    42    51    1
    85    42    59    1
    86    43    46    1
    87    43    52    1
    88    43    60    1
    89    44    47    1
    90    44    48    1
    91    44   122    1
    92    45    47    1
    93    45   123    1
    94    45   124    1
    95    46    49    1
    96    46    57    2
    97    47   125    1
    98    47   126    1
    99    48    56    1
   100    48    65    1
   101    48    66    1
   102    49    53    1
   103    49    61    1
   104    49   127    1
   105    50    57    1
   106    50   128    1
   107    50   129    1
   108    51    58    1
   109    51   130    1
   110    51   131    1
   111    52    55    1
   112    52   132    1
   113    52   133    1
   114    53    55    1
   115    53    62    1
   116    53    67    1
   117    54   134    1
   118    54   135    1
   119    54   136    1
   120    55   137    1
   121    55   138    1
   122    56    58    1
   123    56   139    1
   124    57   140    1
   125    58   141    1
   126    59   142    1
   127    59   143    1
   128    59   144    1
   129    60   145    1
   130    60   146    1
   131    61    63    1
   132    61   147    1
   133    61   148    1
   134    62    64    1
   135    62   149    1
   136    62   150    1
   137    63    64    1
   138    63    68    1
   139    63    69    1
   140    64   151    1
   141    64   152    1
   142    65   153    1
   143    65   154    1
   144    65   155    1
   145    68   156    1
   146    68   157    1
   147    68   161    1
   148    69   158    1
   149    69   159    1
   150    69   160    1
   151    70    71    1
   152    70   164    1
   153    71    73    1
   154    71   166    1
   155    72    75    1
   156    72   167    1
   157    73    76    1
   158    73   168    1
   159    74    76    1
   160    74    80    1
   161    74   169    1
   162    75    77    1
   163    75   170    1
   164    76   171    1
   165    77    79    1
   166    77   172    1
   167    78    79    1
   168    78    81    1
   169    78   174    1
   170    79   175    1
   171    80   176    1
   172    80   177    1
   173    81   180    1
   174    81   181    1
   175    81   182    1
   176    82    84    1
   177    82   183    1
   178    83    86    1
   179    83   185    1
   180    84    85    1
   181    84   186    1
   182    85    89    1
   183    85   187    1
   184    86    90    1
   185    86   188    1
   186    87    94    1
   187    88    89    1
   188    88    93    1
   189    88   189    1
   190    89   190    1
   191    90    92    1
   192    90   191    1
   193    91    92    1
   194    91    95    1
   195    91   192    1
   196    92   194    1
   197    93   195    1
   198    93   196    1
   199    93   197    1
   200    94    98    2
   201    94   198    1
   202    95   200    1
   203    95   201    1
   204    95   202    1
   205    96    99    1
   206    96   203    1
   207    97   100    1
   208    97   205    1
   209    98   103    1
   210    98   207    1
   211    99   101    1
   212    99   208    1
   213   100   105    1
   214   100   209    1
   215   101   104    1
   216   101   210    1
   217   102   104    1
   218   102   108    1
   219   102   211    1
   220   103   109   ar
   221   103   110   ar
   222   104   212    1
   223   105   107    1
   224   105   213    1
   225   106   107    1
   226   106   214    1
   227   106   215    1
   228   107   216    1
   229   108   219    1
   230   108   220    1
   231   108   221    1
   232   109   111   ar
   233   109   222    1
   234   110   112   ar
   235   110   223    1
   236   111   114   ar
   237   111   227    1
   238   112   114   ar
   239   112   228    1
   240   113   115    1
   241   113   229    1
   242   115   116    1
   243   115   230    1
   244   116   118    1
   245   116   231    1
   246   117   118    1
   247   117   119    1
   248   117   232    1
   249   118   233    1
   250   119   235    1
   251   119   236    1
   252   120   237    1
   253   120   238    1
   254   120   239    1
