@<TRIPOS>MOLECULE
IMPHY013294
 26 25 0 0 0
SMALL
GASTEIGER

@<TRIPOS>ATOM
      1 C           8.0622   -0.0600    0.0000 C.3     1  UNL1       -0.0373
      2 C           2.8660   -0.0600    0.0000 C.2     1  UNL1       -0.0757
      3 C           7.1962    0.4400    0.0000 C.2     1  UNL1       -0.0843
      4 C           3.7320    0.4400    0.0000 C.2     1  UNL1       -0.0630
      5 C           8.9282    0.4400    0.0000 C.3     1  UNL1       -0.0618
      6 C           6.3301   -0.0600    0.0000 C.2     1  UNL1       -0.0657
      7 C           2.0000    0.4400    0.0000 C.3     1  UNL1       -0.0438
      8 C           2.8660   -1.0600    0.0000 C.3     1  UNL1       -0.0438
      9 C           4.5981   -0.0600    0.0000 C.2     1  UNL1       -0.0618
     10 C           5.4641    0.4400    0.0000 C.2     1  UNL1       -0.0621
     11 H           7.6636   -0.5349    0.0000 H       1  UNL1        0.0305
     12 H           8.4607   -0.5349    0.0000 H       1  UNL1        0.0305
     13 H           7.1962    1.0600    0.0000 H       1  UNL1        0.0572
     14 H           3.7320    1.0600    0.0000 H       1  UNL1        0.0617
     15 H           9.2382   -0.0969    0.0000 H       1  UNL1        0.0233
     16 H           9.4651    0.7500    0.0000 H       1  UNL1        0.0233
     17 H           8.6182    0.9769    0.0000 H       1  UNL1        0.0233
     18 H           2.3100    0.9769    0.0000 H       1  UNL1        0.0274
     19 H           1.4631    0.7500    0.0000 H       1  UNL1        0.0274
     20 H           1.6900   -0.0969    0.0000 H       1  UNL1        0.0274
     21 H           2.2460   -1.0600    0.0000 H       1  UNL1        0.0274
     22 H           2.8660   -1.6800    0.0000 H       1  UNL1        0.0274
     23 H           3.4860   -1.0600    0.0000 H       1  UNL1        0.0274
     24 H           6.3301   -0.6800    0.0000 H       1  UNL1        0.0614
     25 H           4.5981   -0.6800    0.0000 H       1  UNL1        0.0618
     26 H           5.4641    1.0600    0.0000 H       1  UNL1        0.0617
@<TRIPOS>BOND
     1     1     3    1
     2     1     5    1
     3     1    11    1
     4     1    12    1
     5     2     4    2
     6     2     7    1
     7     2     8    1
     8     3     6    2
     9     3    13    1
    10     4     9    1
    11     4    14    1
    12     5    15    1
    13     5    16    1
    14     5    17    1
    15     6    10    1
    16     6    24    1
    17     7    18    1
    18     7    19    1
    19     7    20    1
    20     8    21    1
    21     8    22    1
    22     8    23    1
    23     9    10    2
    24     9    25    1
    25    10    26    1
