@<TRIPOS>MOLECULE
IMPHY000555
 81 84 0 0 0
SMALL
GASTEIGER

@<TRIPOS>ATOM
      1 O           6.9422   -1.4237    0.0000 O.3     1  UNL1       -0.3456
      2 O           7.9128   -2.9182    0.0000 O.3     1  UNL1       -0.3460
      3 O          10.5109   -2.4182    0.0000 O.3     1  UNL1       -0.3313
      4 O           4.7210   -2.7509    0.0000 O.3     1  UNL1       -0.3801
      5 O           5.9253   -3.8031    0.0000 O.3     1  UNL1       -0.3837
      6 O           8.7788   -4.4182    0.0000 O.3     1  UNL1       -0.3865
      7 O          10.5109   -5.4182    0.0000 O.3     1  UNL1       -0.3864
      8 O          12.2429   -2.4182    0.0000 O.3     1  UNL1       -0.4606
      9 O          12.2429   -4.4182    0.0000 O.3     1  UNL1       -0.3829
     10 O           4.5981   -0.5818    0.0000 O.3     1  UNL1       -0.4585
     11 O           2.8660   -0.5818    0.0000 O.2     1  UNL1       -0.2456
     12 O          10.5109    0.5818    0.0000 O.3     1  UNL1       -0.4912
     13 O          13.9750    0.5818    0.0000 O.3     1  UNL1       -0.4912
     14 O          12.2429    1.5818    0.0000 O.3     1  UNL1       -0.4885
     15 O           4.5981    4.4182    0.0000 O.3     1  UNL1       -0.5033
     16 O           2.8660    5.4182    0.0000 O.3     1  UNL1       -0.5033
     17 C           5.4641   -2.0818    0.0000 C.3     1  UNL1        0.1534
     18 C           6.1332   -2.8249    0.0000 C.3     1  UNL1        0.1398
     19 C           9.6448   -2.9182    0.0000 C.3     1  UNL1        0.1144
     20 C           7.0468   -2.4182    0.0000 C.3     1  UNL1        0.1880
     21 C           9.6448   -3.9182    0.0000 C.3     1  UNL1        0.1120
     22 C          10.5109   -4.4182    0.0000 C.3     1  UNL1        0.1152
     23 C           5.9641   -1.2158    0.0000 C.3     1  UNL1        0.0853
     24 C          11.3769   -3.9182    0.0000 C.3     1  UNL1        0.1454
     25 C           8.7788   -2.4182    0.0000 C.3     1  UNL1        0.0796
     26 C          11.3769   -2.9182    0.0000 C.3     1  UNL1        0.2308
     27 C           4.5981   -1.5818    0.0000 C.3     1  UNL1        0.1262
     28 C          12.2429   -1.4182    0.0000 C.ar    1  UNL1        0.1312
     29 C           3.7320   -0.0818    0.0000 C.2     1  UNL1        0.3320
     30 C          13.1090   -0.9182    0.0000 C.ar    1  UNL1        0.0258
     31 C          11.3769   -0.9182    0.0000 C.ar    1  UNL1        0.0258
     32 C          11.3769    0.0818    0.0000 C.ar    1  UNL1        0.1686
     33 C          13.1090    0.0818    0.0000 C.ar    1  UNL1        0.1686
     34 C           3.7320    0.9182    0.0000 C.2     1  UNL1        0.0231
     35 C          12.2429    0.5818    0.0000 C.ar    1  UNL1        0.2037
     36 C           2.8660    1.4182    0.0000 C.2     1  UNL1       -0.0477
     37 C           2.8660    2.4182    0.0000 C.ar    1  UNL1       -0.0211
     38 C          10.5109    1.5818    0.0000 C.3     1  UNL1        0.0790
     39 C          14.8410    0.0818    0.0000 C.3     1  UNL1        0.0790
     40 C          13.1090    2.0818    0.0000 C.3     1  UNL1        0.0791
     41 C           3.7320    2.9182    0.0000 C.ar    1  UNL1       -0.0094
     42 C           2.0000    2.9182    0.0000 C.ar    1  UNL1       -0.0509
     43 C           3.7320    3.9182    0.0000 C.ar    1  UNL1        0.1588
     44 C           2.0000    3.9182    0.0000 C.ar    1  UNL1       -0.0160
     45 C           2.8660    4.4182    0.0000 C.ar    1  UNL1        0.1582
     46 H           5.5344   -2.9854    0.0000 H       1  UNL1        0.0675
     47 H           9.6448   -2.2982    0.0000 H       1  UNL1        0.0647
     48 H           7.0143   -3.0374    0.0000 H       1  UNL1        0.0937
     49 H           9.1079   -3.6082    0.0000 H       1  UNL1        0.0647
     50 H          11.0478   -4.7282    0.0000 H       1  UNL1        0.0648
     51 H           6.1557   -0.6261    0.0000 H       1  UNL1        0.0591
     52 H           5.3977   -0.9636    0.0000 H       1  UNL1        0.0591
     53 H          11.9138   -3.6082    0.0000 H       1  UNL1        0.0683
     54 H           9.1774   -1.9433    0.0000 H       1  UNL1        0.0587
     55 H           8.3803   -1.9433    0.0000 H       1  UNL1        0.0587
     56 H          11.3769   -2.2982    0.0000 H       1  UNL1        0.1084
     57 H           3.9875   -1.4741    0.0000 H       1  UNL1        0.0728
     58 H           4.3860   -2.1644    0.0000 H       1  UNL1        0.0728
     59 H           4.1313   -2.5593    0.0000 H       1  UNL1        0.2105
     60 H           6.3861   -4.2180    0.0000 H       1  UNL1        0.2101
     61 H           8.7788   -5.0382    0.0000 H       1  UNL1        0.2100
     62 H          11.0478   -5.7282    0.0000 H       1  UNL1        0.2100
     63 H          12.7799   -4.1082    0.0000 H       1  UNL1        0.2102
     64 H          13.6459   -1.2282    0.0000 H       1  UNL1        0.0692
     65 H          10.8400   -1.2282    0.0000 H       1  UNL1        0.0692
     66 H           4.2690    1.2282    0.0000 H       1  UNL1        0.0689
     67 H           2.3291    1.1082    0.0000 H       1  UNL1        0.0626
     68 H          11.1309    1.5818    0.0000 H       1  UNL1        0.0660
     69 H          10.5109    2.2018    0.0000 H       1  UNL1        0.0660
     70 H           9.8909    1.5818    0.0000 H       1  UNL1        0.0660
     71 H          14.5310   -0.4551    0.0000 H       1  UNL1        0.0660
     72 H          15.3779   -0.2282    0.0000 H       1  UNL1        0.0660
     73 H          15.1510    0.6187    0.0000 H       1  UNL1        0.0660
     74 H          13.4190    1.5449    0.0000 H       1  UNL1        0.0660
     75 H          13.6459    2.3918    0.0000 H       1  UNL1        0.0660
     76 H          12.7990    2.6187    0.0000 H       1  UNL1        0.0660
     77 H           4.2690    2.6082    0.0000 H       1  UNL1        0.0661
     78 H           1.4631    2.6082    0.0000 H       1  UNL1        0.0625
     79 H           1.4631    4.2282    0.0000 H       1  UNL1        0.0655
     80 H           4.5981    5.0382    0.0000 H       1  UNL1        0.2923
     81 H           2.3291    5.7282    0.0000 H       1  UNL1        0.2923
@<TRIPOS>BOND
     1     1    20    1
     2     1    23    1
     3    20     2    1
     4     2    25    1
     5     3    19    1
     6     3    26    1
     7    17     4    1
     8     4    59    1
     9    18     5    1
    10     5    60    1
    11    21     6    1
    12     6    61    1
    13    22     7    1
    14     7    62    1
    15    26     8    1
    16     8    28    1
    17    24     9    1
    18     9    63    1
    19    10    27    1
    20    10    29    1
    21    11    29    2
    22    12    32    1
    23    12    38    1
    24    13    33    1
    25    13    39    1
    26    14    35    1
    27    14    40    1
    28    15    43    1
    29    15    80    1
    30    16    45    1
    31    16    81    1
    32    17    18    1
    33    17    23    1
    34    17    27    1
    35    18    20    1
    36    18    46    1
    37    19    21    1
    38    19    25    1
    39    19    47    1
    40    20    48    1
    41    21    22    1
    42    21    49    1
    43    22    24    1
    44    22    50    1
    45    23    51    1
    46    23    52    1
    47    24    26    1
    48    24    53    1
    49    25    54    1
    50    25    55    1
    51    26    56    1
    52    27    57    1
    53    27    58    1
    54    28    30   ar
    55    28    31   ar
    56    29    34    1
    57    30    33   ar
    58    30    64    1
    59    31    32   ar
    60    31    65    1
    61    32    35   ar
    62    33    35   ar
    63    34    36    2
    64    34    66    1
    65    36    37    1
    66    36    67    1
    67    37    41   ar
    68    37    42   ar
    69    38    68    1
    70    38    69    1
    71    38    70    1
    72    39    71    1
    73    39    72    1
    74    39    73    1
    75    40    74    1
    76    40    75    1
    77    40    76    1
    78    41    43   ar
    79    41    77    1
    80    42    44   ar
    81    42    78    1
    82    43    45   ar
    83    44    45   ar
    84    44    79    1
