@<TRIPOS>MOLECULE
IMPHY004154
 81 85 0 0 0
SMALL
GASTEIGER

@<TRIPOS>ATOM
      1 O           2.5381   -3.5059    0.0000 O.3     1  UNL1       -0.3912
      2 O          13.0525    4.2649    0.0000 O.3     1  UNL1       -0.4774
      3 O          13.3966    2.5674    0.0000 O.2     1  UNL1       -0.2455
      4 C           6.0682   -1.4817    0.0000 C.3     1  UNL1       -0.0194
      5 C           5.2022   -1.9817    0.0000 C.3     1  UNL1       -0.0193
      6 C           5.2020   -0.9813    0.0000 C.3     1  UNL1       -0.0401
      7 C           6.9343   -1.9817    0.0000 C.3     1  UNL1       -0.0289
      8 C           5.2022   -2.9817    0.0000 C.3     1  UNL1       -0.0273
      9 C           7.8443   -1.4749    0.0000 C.3     1  UNL1       -0.0231
     10 C           6.0522   -0.4402    0.0000 C.3     1  UNL1       -0.0460
     11 C           7.8523   -0.4333    0.0000 C.3     1  UNL1       -0.0233
     12 C           4.3083   -1.4470    0.0000 C.3     1  UNL1       -0.0442
     13 C           6.9343   -2.9817    0.0000 C.3     1  UNL1       -0.0489
     14 C           6.0682   -3.4817    0.0000 C.3     1  UNL1       -0.0488
     15 C           6.9502    0.0876    0.0000 C.3     1  UNL1       -0.0463
     16 C           4.3083   -3.5164    0.0000 C.3     1  UNL1       -0.0056
     17 C           8.8403   -0.1235    0.0000 C.3     1  UNL1       -0.0325
     18 C           8.8274   -1.7999    0.0000 C.3     1  UNL1       -0.0466
     19 C           3.4022   -1.9609    0.0000 C.3     1  UNL1       -0.0258
     20 C           3.4022   -3.0025    0.0000 C.3     1  UNL1        0.0606
     21 C           9.4418   -0.9663    0.0000 C.3     1  UNL1       -0.0489
     22 C           7.8366   -2.4748    0.0000 C.3     1  UNL1       -0.0588
     23 C           7.8600    0.5667    0.0000 C.3     1  UNL1       -0.0588
     24 C           9.1583    0.8246    0.0000 C.3     1  UNL1       -0.0403
     25 C           3.8183   -4.3881    0.0000 C.3     1  UNL1       -0.0572
     26 C           4.8183   -4.3766    0.0000 C.3     1  UNL1       -0.0572
     27 C          10.1384    1.0233    0.0000 C.3     1  UNL1       -0.0467
     28 C           8.4962    1.5741    0.0000 C.3     1  UNL1       -0.0621
     29 C          10.4564    1.9714    0.0000 C.3     1  UNL1       -0.0338
     30 C          11.4364    2.1701    0.0000 C.2     1  UNL1       -0.0743
     31 C          11.7544    3.1182    0.0000 C.2     1  UNL1        0.0294
     32 C          11.0923    3.8676    0.0000 C.3     1  UNL1       -0.0332
     33 C          12.7345    3.3168    0.0000 C.2     1  UNL1        0.3322
     34 H           5.4141   -0.3987    0.0000 H       1  UNL1        0.0276
     35 H           4.5914   -0.8737    0.0000 H       1  UNL1        0.0276
     36 H           7.6671   -2.4124    0.0000 H       1  UNL1        0.0312
     37 H           5.2088   -3.8317    0.0000 H       1  UNL1        0.0312
     38 H           5.8342    0.1402    0.0000 H       1  UNL1        0.0271
     39 H           5.4431   -0.5557    0.0000 H       1  UNL1        0.0271
     40 H           4.7129   -0.9773    0.0000 H       1  UNL1        0.0272
     41 H           3.9147   -0.9680    0.0000 H       1  UNL1        0.0272
     42 H           7.1463   -3.5643    0.0000 H       1  UNL1        0.0268
     43 H           7.5449   -2.8740    0.0000 H       1  UNL1        0.0268
     44 H           5.6697   -3.9567    0.0000 H       1  UNL1        0.0268
     45 H           6.4668   -3.9567    0.0000 H       1  UNL1        0.0268
     46 H           7.3475    0.5635    0.0000 H       1  UNL1        0.0271
     47 H           6.5493    0.5604    0.0000 H       1  UNL1        0.0271
     48 H           9.6810    0.0019    0.0000 H       1  UNL1        0.0309
     49 H           8.5720   -2.3648    0.0000 H       1  UNL1        0.0271
     50 H           9.3624   -2.1132    0.0000 H       1  UNL1        0.0271
     51 H           3.1932   -1.3772    0.0000 H       1  UNL1        0.0290
     52 H           2.7914   -2.0670    0.0000 H       1  UNL1        0.0290
     53 H           3.4058   -3.6225    0.0000 H       1  UNL1        0.0599
     54 H           9.8994   -1.3846    0.0000 H       1  UNL1        0.0268
     55 H           9.9058   -0.5552    0.0000 H       1  UNL1        0.0268
     56 H           7.2166   -2.4700    0.0000 H       1  UNL1        0.0235
     57 H           7.8318   -3.0948    0.0000 H       1  UNL1        0.0235
     58 H           8.4566   -2.4796    0.0000 H       1  UNL1        0.0235
     59 H           8.4800    0.5619    0.0000 H       1  UNL1        0.0235
     60 H           7.8648    1.1867    0.0000 H       1  UNL1        0.0235
     61 H           7.2400    0.5715    0.0000 H       1  UNL1        0.0235
     62 H           9.3555    1.4125    0.0000 H       1  UNL1        0.0301
     63 H           3.2778   -4.0844    0.0000 H       1  UNL1        0.0236
     64 H           3.5146   -4.9286    0.0000 H       1  UNL1        0.0236
     65 H           4.3588   -4.6919    0.0000 H       1  UNL1        0.0236
     66 H           4.2850   -4.6927    0.0000 H       1  UNL1        0.0236
     67 H           5.1344   -4.9099    0.0000 H       1  UNL1        0.0236
     68 H           5.3516   -4.0604    0.0000 H       1  UNL1        0.0236
     69 H           2.0000   -3.1979    0.0000 H       1  UNL1        0.2098
     70 H          10.1542    0.4035    0.0000 H       1  UNL1        0.0271
     71 H          10.7515    0.9312    0.0000 H       1  UNL1        0.0271
     72 H           8.9609    1.9846    0.0000 H       1  UNL1        0.0233
     73 H           8.0857    2.0387    0.0000 H       1  UNL1        0.0233
     74 H           8.0316    1.1636    0.0000 H       1  UNL1        0.0233
     75 H          10.4406    2.5912    0.0000 H       1  UNL1        0.0308
     76 H           9.8432    2.0635    0.0000 H       1  UNL1        0.0308
     77 H          11.8469    1.7054    0.0000 H       1  UNL1        0.0577
     78 H          11.5570    4.2781    0.0000 H       1  UNL1        0.0280
     79 H          10.6818    4.3322    0.0000 H       1  UNL1        0.0280
     80 H          10.6277    3.4571    0.0000 H       1  UNL1        0.0280
     81 H          13.6601    4.3881    0.0000 H       1  UNL1        0.2954
@<TRIPOS>BOND
     1    20     1    1
     2     1    69    1
     3     2    33    1
     4     2    81    1
     5     3    33    2
     6     4     5    1
     7     4     6    1
     8     4     7    1
     9     4    10    1
    10     5     6    1
    11     5     8    1
    12     5    12    1
    13     6    34    1
    14     6    35    1
    15     7     9    1
    16     7    13    1
    17     7    36    1
    18     8    14    1
    19     8    16    1
    20     8    37    1
    21     9    11    1
    22     9    18    1
    23     9    22    1
    24    10    15    1
    25    10    38    1
    26    10    39    1
    27    11    15    1
    28    11    17    1
    29    11    23    1
    30    12    19    1
    31    12    40    1
    32    12    41    1
    33    13    14    1
    34    13    42    1
    35    13    43    1
    36    14    44    1
    37    14    45    1
    38    15    46    1
    39    15    47    1
    40    16    20    1
    41    16    25    1
    42    16    26    1
    43    17    21    1
    44    17    24    1
    45    17    48    1
    46    18    21    1
    47    18    49    1
    48    18    50    1
    49    19    20    1
    50    19    51    1
    51    19    52    1
    52    20    53    1
    53    21    54    1
    54    21    55    1
    55    22    56    1
    56    22    57    1
    57    22    58    1
    58    23    59    1
    59    23    60    1
    60    23    61    1
    61    24    27    1
    62    24    28    1
    63    24    62    1
    64    25    63    1
    65    25    64    1
    66    25    65    1
    67    26    66    1
    68    26    67    1
    69    26    68    1
    70    27    29    1
    71    27    70    1
    72    27    71    1
    73    28    72    1
    74    28    73    1
    75    28    74    1
    76    29    30    1
    77    29    75    1
    78    29    76    1
    79    30    31    2
    80    30    77    1
    81    31    32    1
    82    31    33    1
    83    32    78    1
    84    32    79    1
    85    32    80    1
