@<TRIPOS>MOLECULE
IMPHY005810
 72 73 0 0 0
SMALL
GASTEIGER

@<TRIPOS>ATOM
      1 O           4.1907    2.3110    0.0000 O.2     1  UNL1       -0.2756
      2 N           7.6962    2.1430    0.0000 N.3     1  UNL1       -0.2993
      3 N           5.1566    0.6380    0.0000 N.am    1  UNL1       -0.3014
      4 N           5.2261   -3.7204    0.0000 N.3     1  UNL1       -0.3300
      5 C           6.8301    2.6430    0.0000 C.3     1  UNL1        0.0104
      6 C           6.8141    3.6845    0.0000 C.3     1  UNL1       -0.0373
      7 C           5.9641    2.1430    0.0000 C.3     1  UNL1       -0.0373
      8 C           8.6062    2.6498    0.0000 C.3     1  UNL1       -0.0008
      9 C           7.7121    4.2122    0.0000 C.3     1  UNL1       -0.0505
     10 C           8.6142    3.6914    0.0000 C.3     1  UNL1       -0.0401
     11 C           7.6962    1.1430    0.0000 C.3     1  UNL1        0.0006
     12 C           5.0981    2.6430    0.0000 C.3     1  UNL1       -0.0516
     13 C           6.8637    1.3451    0.0000 C.3     1  UNL1       -0.0243
     14 C           5.0981    3.6430    0.0000 C.3     1  UNL1       -0.0530
     15 C           6.1566    0.6380    0.0000 C.3     1  UNL1        0.0158
     16 C           4.2320    4.1430    0.0000 C.3     1  UNL1       -0.0531
     17 C           3.3660    3.6430    0.0000 C.3     1  UNL1       -0.0531
     18 C           2.5000    4.1430    0.0000 C.3     1  UNL1       -0.0531
     19 C           2.0000    3.2770    0.0000 C.3     1  UNL1       -0.0530
     20 C           4.7739   -0.2859    0.0000 C.3     1  UNL1        0.0147
     21 C           2.2588    2.3110    0.0000 C.3     1  UNL1       -0.0526
     22 C           4.4495    1.3451    0.0000 C.2     1  UNL1        0.2156
     23 C           3.2247    2.0522    0.0000 C.3     1  UNL1       -0.0448
     24 C           3.4836    1.0863    0.0000 C.3     1  UNL1        0.0242
     25 C           5.3827   -1.0792    0.0000 C.3     1  UNL1       -0.0360
     26 C           5.0000   -2.0031    0.0000 C.3     1  UNL1       -0.0392
     27 C           5.6088   -2.7965    0.0000 C.3     1  UNL1       -0.0069
     28 H           6.0908    3.0623    0.0000 H       1  UNL1        0.0462
     29 H           6.5960    4.2649    0.0000 H       1  UNL1        0.0280
     30 H           6.2049    3.5690    0.0000 H       1  UNL1        0.0280
     31 H           5.5656    1.6680    0.0000 H       1  UNL1        0.0280
     32 H           6.3626    1.6680    0.0000 H       1  UNL1        0.0280
     33 H           8.8107    2.0645    0.0000 H       1  UNL1        0.0427
     34 H           9.2178    2.7512    0.0000 H       1  UNL1        0.0427
     35 H           8.1094    4.6882    0.0000 H       1  UNL1        0.0266
     36 H           7.3111    4.6851    0.0000 H       1  UNL1        0.0266
     37 H           9.2242    3.5806    0.0000 H       1  UNL1        0.0278
     38 H           8.8277    4.2735    0.0000 H       1  UNL1        0.0278
     39 H           7.5981    0.5308    0.0000 H       1  UNL1        0.0427
     40 H           8.3142    1.0938    0.0000 H       1  UNL1        0.0427
     41 H           4.4875    2.7506    0.0000 H       1  UNL1        0.0266
     42 H           4.8860    2.0604    0.0000 H       1  UNL1        0.0266
     43 H           7.1168    1.9111    0.0000 H       1  UNL1        0.0293
     44 H           6.3530    1.6967    0.0000 H       1  UNL1        0.0293
     45 H           5.7087    3.5353    0.0000 H       1  UNL1        0.0265
     46 H           5.3101    4.2256    0.0000 H       1  UNL1        0.0265
     47 H           5.9961    0.0391    0.0000 H       1  UNL1        0.0465
     48 H           6.6935    0.3280    0.0000 H       1  UNL1        0.0465
     49 H           4.6306    4.6179    0.0000 H       1  UNL1        0.0265
     50 H           3.8335    4.6179    0.0000 H       1  UNL1        0.0265
     51 H           2.9675    3.1680    0.0000 H       1  UNL1        0.0265
     52 H           3.7646    3.1680    0.0000 H       1  UNL1        0.0265
     53 H           2.8100    4.6799    0.0000 H       1  UNL1        0.0265
     54 H           1.9631    4.4530    0.0000 H       1  UNL1        0.0265
     55 H           1.5616    3.7154    0.0000 H       1  UNL1        0.0265
     56 H           1.4631    2.9670    0.0000 H       1  UNL1        0.0265
     57 H           4.2510    0.0472    0.0000 H       1  UNL1        0.0464
     58 H           4.3550   -0.7430    0.0000 H       1  UNL1        0.0464
     59 H           1.6412    2.2570    0.0000 H       1  UNL1        0.0265
     60 H           2.2048    1.6934    0.0000 H       1  UNL1        0.0265
     61 H           3.8424    2.1062    0.0000 H       1  UNL1        0.0270
     62 H           3.2788    2.6698    0.0000 H       1  UNL1        0.0270
     63 H           2.8847    0.9258    0.0000 H       1  UNL1        0.0358
     64 H           3.6440    0.4874    0.0000 H       1  UNL1        0.0358
     65 H           5.9056   -1.4124    0.0000 H       1  UNL1        0.0281
     66 H           5.8015   -0.6221    0.0000 H       1  UNL1        0.0281
     67 H           4.4771   -1.6700    0.0000 H       1  UNL1        0.0278
     68 H           4.5811   -2.4602    0.0000 H       1  UNL1        0.0278
     69 H           6.1317   -3.1296    0.0000 H       1  UNL1        0.0422
     70 H           6.0276   -2.3394    0.0000 H       1  UNL1        0.0422
     71 H           5.6035   -4.2122    0.0000 H       1  UNL1        0.1182
     72 H           4.6114   -3.8013    0.0000 H       1  UNL1        0.1182
@<TRIPOS>BOND
     1     1    22    2
     2     2     5    1
     3     2     8    1
     4     2    11    1
     5     3    15    1
     6     3    20    1
     7     3    22   am
     8     4    27    1
     9     4    71    1
    10     4    72    1
    11     5     6    1
    12     5     7    1
    13     5    28    1
    14     6     9    1
    15     6    29    1
    16     6    30    1
    17     7    12    1
    18     7    31    1
    19     7    32    1
    20     8    10    1
    21     8    33    1
    22     8    34    1
    23     9    10    1
    24     9    35    1
    25     9    36    1
    26    10    37    1
    27    10    38    1
    28    11    13    1
    29    11    39    1
    30    11    40    1
    31    12    14    1
    32    12    41    1
    33    12    42    1
    34    13    15    1
    35    13    43    1
    36    13    44    1
    37    14    16    1
    38    14    45    1
    39    14    46    1
    40    15    47    1
    41    15    48    1
    42    16    17    1
    43    16    49    1
    44    16    50    1
    45    17    18    1
    46    17    51    1
    47    17    52    1
    48    18    19    1
    49    18    53    1
    50    18    54    1
    51    19    21    1
    52    19    55    1
    53    19    56    1
    54    20    25    1
    55    20    57    1
    56    20    58    1
    57    21    23    1
    58    21    59    1
    59    21    60    1
    60    22    24    1
    61    23    24    1
    62    23    61    1
    63    23    62    1
    64    24    63    1
    65    24    64    1
    66    25    26    1
    67    25    65    1
    68    25    66    1
    69    26    27    1
    70    26    67    1
    71    26    68    1
    72    27    69    1
    73    27    70    1
