@<TRIPOS>MOLECULE
IMPHY006858
 84 88 0 0 0
SMALL
GASTEIGER

@<TRIPOS>ATOM
      1 O           2.8641   -2.5933    0.0000 O.3     1  UNL1       -0.3792
      2 C           7.3912   -1.0410    0.0000 C.3     1  UNL1       -0.0228
      3 C           6.5251   -0.5410    0.0000 C.3     1  UNL1       -0.0294
      4 C           8.2572   -0.5410    0.0000 C.3     1  UNL1       -0.0199
      5 C           5.6151   -1.0478    0.0000 C.3     1  UNL1       -0.0252
      6 C           5.6071   -2.0894    0.0000 C.3     1  UNL1       -0.0278
      7 C           8.2572    0.4590    0.0000 C.3     1  UNL1       -0.0135
      8 C           7.4072   -2.0825    0.0000 C.3     1  UNL1       -0.0466
      9 C           6.5251    0.4590    0.0000 C.3     1  UNL1       -0.0486
     10 C           6.5092   -2.6102    0.0000 C.3     1  UNL1       -0.0486
     11 C           4.6717   -2.6391    0.0000 C.3     1  UNL1       -0.0053
     12 C           7.3912    0.9590    0.0000 C.3     1  UNL1       -0.0457
     13 C           9.1511   -1.0756    0.0000 C.3     1  UNL1       -0.0458
     14 C           4.6883   -0.4837    0.0000 C.3     1  UNL1       -0.0447
     15 C           9.1511    0.9937    0.0000 C.2     1  UNL1       -0.0634
     16 C          10.0572    0.4799    0.0000 C.3     1  UNL1       -0.0107
     17 C           8.0339   -1.8070    0.0000 C.3     1  UNL1       -0.0588
     18 C          10.0572   -0.5618    0.0000 C.3     1  UNL1       -0.0434
     19 C           8.5993   -1.4806    0.0000 C.3     1  UNL1       -0.0585
     20 C           3.7320   -2.0966    0.0000 C.3     1  UNL1        0.0637
     21 C           5.6228   -0.0478    0.0000 C.3     1  UNL1       -0.0590
     22 C           3.7404   -1.0117    0.0000 C.3     1  UNL1       -0.0256
     23 C          11.0010    1.0151    0.0000 C.3     1  UNL1       -0.0431
     24 C           4.1750   -3.5071    0.0000 C.3     1  UNL1       -0.0572
     25 C           5.1750   -3.5032    0.0000 C.3     1  UNL1       -0.0572
     26 C           9.1260    2.0784    0.0000 C.2     1  UNL1       -0.0783
     27 C          10.0572    2.6353    0.0000 C.3     1  UNL1       -0.0166
     28 C          10.9270   -0.0135    0.0000 C.3     1  UNL1       -0.0558
     29 C          11.0010    2.1001    0.0000 C.3     1  UNL1       -0.0436
     30 C          10.5471    3.5071    0.0000 C.3     1  UNL1       -0.0563
     31 C           9.5472    3.4955    0.0000 C.3     1  UNL1       -0.0563
     32 C           2.0000   -2.0900    0.0000 C.3     1  UNL1        0.0368
     33 H           7.2612   -0.1160    0.0000 H       1  UNL1        0.0312
     34 H           5.6104   -2.9394    0.0000 H       1  UNL1        0.0312
     35 H           8.2506    1.3090    0.0000 H       1  UNL1        0.0351
     36 H           7.6252   -2.6629    0.0000 H       1  UNL1        0.0271
     37 H           8.0164   -1.9670    0.0000 H       1  UNL1        0.0271
     38 H           6.3131    1.0416    0.0000 H       1  UNL1        0.0268
     39 H           5.9145    0.3514    0.0000 H       1  UNL1        0.0268
     40 H           6.1119   -3.0862    0.0000 H       1  UNL1        0.0268
     41 H           6.9101   -3.0831    0.0000 H       1  UNL1        0.0268
     42 H           7.7897    1.4340    0.0000 H       1  UNL1        0.0271
     43 H           6.9926    1.4340    0.0000 H       1  UNL1        0.0271
     44 H           8.7465   -1.5454    0.0000 H       1  UNL1        0.0271
     45 H           9.5447   -1.5546    0.0000 H       1  UNL1        0.0271
     46 H           5.0965   -0.0171    0.0000 H       1  UNL1        0.0271
     47 H           4.2984   -0.0017    0.0000 H       1  UNL1        0.0271
     48 H           7.5590   -2.2055    0.0000 H       1  UNL1        0.0235
     49 H           8.4325   -2.2820    0.0000 H       1  UNL1        0.0235
     50 H           8.5089   -1.4085    0.0000 H       1  UNL1        0.0235
     51 H          10.2662   -1.1455    0.0000 H       1  UNL1        0.0274
     52 H          10.6680   -0.4557    0.0000 H       1  UNL1        0.0274
     53 H           8.0167   -1.6927    0.0000 H       1  UNL1        0.0235
     54 H           8.8114   -2.0632    0.0000 H       1  UNL1        0.0235
     55 H           9.1819   -1.2685    0.0000 H       1  UNL1        0.0235
     56 H           3.7308   -2.7166    0.0000 H       1  UNL1        0.0601
     57 H           6.2428   -0.0526    0.0000 H       1  UNL1        0.0235
     58 H           5.6276    0.5721    0.0000 H       1  UNL1        0.0235
     59 H           5.0028   -0.0431    0.0000 H       1  UNL1        0.0235
     60 H           3.5358   -0.4264    0.0000 H       1  UNL1        0.0290
     61 H           3.1288   -1.1131    0.0000 H       1  UNL1        0.0290
     62 H          11.2100    0.4314    0.0000 H       1  UNL1        0.0274
     63 H          11.6118    1.1212    0.0000 H       1  UNL1        0.0274
     64 H           3.6369   -3.1992    0.0000 H       1  UNL1        0.0236
     65 H           3.8671   -4.0452    0.0000 H       1  UNL1        0.0236
     66 H           4.7131   -3.8150    0.0000 H       1  UNL1        0.0236
     67 H           4.6393   -3.8153    0.0000 H       1  UNL1        0.0236
     68 H           5.4871   -4.0390    0.0000 H       1  UNL1        0.0236
     69 H           5.7107   -3.1912    0.0000 H       1  UNL1        0.0236
     70 H           8.5832    2.3780    0.0000 H       1  UNL1        0.0577
     71 H          10.6212   -0.5528    0.0000 H       1  UNL1        0.0238
     72 H          11.4663   -0.3193    0.0000 H       1  UNL1        0.0238
     73 H          11.2329    0.5259    0.0000 H       1  UNL1        0.0238
     74 H          11.6118    1.9940    0.0000 H       1  UNL1        0.0274
     75 H          11.2100    2.6838    0.0000 H       1  UNL1        0.0274
     76 H          11.0876    3.2033    0.0000 H       1  UNL1        0.0238
     77 H          10.8509    4.0476    0.0000 H       1  UNL1        0.0238
     78 H          10.0067    3.8108    0.0000 H       1  UNL1        0.0238
     79 H          10.0805    3.8117    0.0000 H       1  UNL1        0.0238
     80 H           9.2310    4.0288    0.0000 H       1  UNL1        0.0238
     81 H           9.0139    3.1793    0.0000 H       1  UNL1        0.0238
     82 H           2.3121   -1.5542    0.0000 H       1  UNL1        0.0524
     83 H           1.4643   -1.7779    0.0000 H       1  UNL1        0.0524
     84 H           1.6879   -2.6257    0.0000 H       1  UNL1        0.0524
@<TRIPOS>BOND
     1    20     1    1
     2     1    32    1
     3     2     3    1
     4     2     4    1
     5     2     8    1
     6     2    17    1
     7     3     5    1
     8     3     9    1
     9     3    33    1
    10     4     7    1
    11     4    13    1
    12     4    19    1
    13     5     6    1
    14     5    14    1
    15     5    21    1
    16     6    10    1
    17     6    11    1
    18     6    34    1
    19     7    12    1
    20     7    15    1
    21     7    35    1
    22     8    10    1
    23     8    36    1
    24     8    37    1
    25     9    12    1
    26     9    38    1
    27     9    39    1
    28    10    40    1
    29    10    41    1
    30    11    20    1
    31    11    24    1
    32    11    25    1
    33    12    42    1
    34    12    43    1
    35    13    18    1
    36    13    44    1
    37    13    45    1
    38    14    22    1
    39    14    46    1
    40    14    47    1
    41    15    16    1
    42    15    26    2
    43    16    18    1
    44    16    23    1
    45    16    28    1
    46    17    48    1
    47    17    49    1
    48    17    50    1
    49    18    51    1
    50    18    52    1
    51    19    53    1
    52    19    54    1
    53    19    55    1
    54    20    22    1
    55    20    56    1
    56    21    57    1
    57    21    58    1
    58    21    59    1
    59    22    60    1
    60    22    61    1
    61    23    29    1
    62    23    62    1
    63    23    63    1
    64    24    64    1
    65    24    65    1
    66    24    66    1
    67    25    67    1
    68    25    68    1
    69    25    69    1
    70    26    27    1
    71    26    70    1
    72    27    29    1
    73    27    30    1
    74    27    31    1
    75    28    71    1
    76    28    72    1
    77    28    73    1
    78    29    74    1
    79    29    75    1
    80    30    76    1
    81    30    77    1
    82    30    78    1
    83    31    79    1
    84    31    80    1
    85    31    81    1
    86    32    82    1
    87    32    83    1
    88    32    84    1
