@<TRIPOS>MOLECULE
IMPHY000460
 30 33 0 0 0
SMALL
GASTEIGER

@<TRIPOS>ATOM
      1 C           0.9246    2.7542    0.0000 C.3     1  UNL1        0.1240
      2 C           1.7790    2.0711    0.0000 C.3     1  UNL1        0.1836
      3 O           0.6677    1.5264    0.0000 O.3     1  UNL1       -0.3520
      4 C           0.6325    3.8084    0.0000 C.3     1  UNL1        0.0622
      5 C           0.0000    2.3896    0.0000 C.3     1  UNL1        0.0324
      6 C           2.8640    2.0228    0.0000 C.3     1  UNL1        0.2200
      7 C           1.0191    4.8296    0.0000 C.3     1  UNL1        0.1489
      8 C           3.7776    2.6202    0.0000 C.2     1  UNL1        0.0431
      9 O           3.0397    0.9466    0.0000 O.3     1  UNL1       -0.4423
     10 C           1.9327    5.4248    0.0000 C.3     1  UNL1        0.1607
     11 O           1.1421    6.0003    0.0000 O.3     1  UNL1       -0.3493
     12 C           4.1642    3.6415    0.0000 C.3     1  UNL1        0.1950
     13 C           4.3904    1.8141    0.0000 C.2     1  UNL1        0.0957
     14 C           3.8918    0.8324    0.0000 C.2     1  UNL1        0.3406
     15 C           3.0199    5.3721    0.0000 C.2     1  UNL1       -0.0113
     16 C           3.8743    4.6957    0.0000 C.3     1  UNL1        0.0725
     17 O           5.0427    3.6041    0.0000 O.3     1  UNL1       -0.4447
     18 C           5.3546    1.7812    0.0000 C.3     1  UNL1        0.2410
     19 O           4.2784    0.0000    0.0000 O.2     1  UNL1       -0.2451
     20 C           3.4262    6.4044    0.0000 C.2     1  UNL1       -0.0066
     21 C           5.6137    4.3509    0.0000 C.2     1  UNL1        0.3399
     22 O           5.7301    1.0630    0.0000 O.3     1  UNL1       -0.4433
     23 C           6.4549    4.3882    0.0000 C.2     1  UNL1        0.0862
     24 O           5.1503    4.9548    0.0000 O.2     1  UNL1       -0.2452
     25 C           6.4549    1.0630    0.0000 C.2     1  UNL1        0.3179
     26 C           6.9183    5.2931    0.0000 C.3     1  UNL1        0.2150
     27 C           6.9908    3.3757    0.0000 C.2     1  UNL1        0.0047
     28 O           6.8612    1.7087    0.0000 O.2     1  UNL1       -0.2501
     29 C           6.9183    0.2372    0.0000 C.3     1  UNL1        0.1212
     30 O           7.6870    5.2777    0.0000 O.3     1  UNL1       -0.2149
@<TRIPOS>BOND
     1     1     2    1
     2     1     3    1
     3     1     4    1
     4     1     5    1
     5     2     3    1
     6     2     6    1
     7     6     8    1
     8     6     9    1
     9     7     4    1
    10     7    10    1
    11     7    11    1
    12     8    12    1
    13     8    13    2
    14     9    14    1
    15    10    11    1
    16    10    15    1
    17    12    16    1
    18    12    17    1
    19    13    14    1
    20    13    18    1
    21    14    19    2
    22    15    16    1
    23    15    20    2
    24    17    21    1
    25    18    22    1
    26    21    23    1
    27    21    24    2
    28    22    25    1
    29    23    26    1
    30    23    27    2
    31    25    28    2
    32    25    29    1
    33    26    30    1
