@<TRIPOS>MOLECULE
IMPHY003223
 33 35 0 0 0
SMALL
GASTEIGER

@<TRIPOS>ATOM
      1 O           6.4144    1.7623    0.0000 O.3     1  UNL1       -0.4907
      2 O           8.1962    0.7519    0.0000 O.3     1  UNL1       -0.5031
      3 O           4.6660    1.7277    0.0000 O.2     1  UNL1       -0.2864
      4 O           4.6660   -2.2723    0.0000 O.2     1  UNL1       -0.2866
      5 O           2.9176    1.7623    0.0000 O.3     1  UNL1       -0.5060
      6 C           5.5321    0.2277    0.0000 C.ar    1  UNL1        0.0784
      7 C           5.5321   -0.7723    0.0000 C.ar    1  UNL1        0.0371
      8 C           3.8000    0.2277    0.0000 C.ar    1  UNL1        0.0745
      9 C           3.8000   -0.7723    0.0000 C.ar    1  UNL1        0.0366
     10 C           4.6660    0.7277    0.0000 C.2     1  UNL1        0.2016
     11 C           4.6660   -1.2723    0.0000 C.2     1  UNL1        0.1947
     12 C           6.4260    0.7624    0.0000 C.ar    1  UNL1        0.1730
     13 C           6.4260   -1.3070    0.0000 C.ar    1  UNL1       -0.0436
     14 C           7.3321   -0.7931    0.0000 C.ar    1  UNL1       -0.0047
     15 C           7.3321    0.2485    0.0000 C.ar    1  UNL1        0.1622
     16 C           2.9061    0.7624    0.0000 C.ar    1  UNL1        0.1283
     17 C           2.9061   -1.3070    0.0000 C.ar    1  UNL1       -0.0500
     18 C           8.1962   -1.2964    0.0000 C.3     1  UNL1       -0.0361
     19 C           2.0000    0.2485    0.0000 C.ar    1  UNL1       -0.0194
     20 C           2.0000   -0.7931    0.0000 C.ar    1  UNL1       -0.0576
     21 C           7.2746    2.2723    0.0000 C.3     1  UNL1        0.0790
     22 H           6.4188   -1.9269    0.0000 H       1  UNL1        0.0629
     23 H           2.9132   -1.9269    0.0000 H       1  UNL1        0.0625
     24 H           7.8841   -1.8322    0.0000 H       1  UNL1        0.0279
     25 H           8.7319   -1.6085    0.0000 H       1  UNL1        0.0279
     26 H           8.5082   -0.7607    0.0000 H       1  UNL1        0.0279
     27 H           1.4643    0.5606    0.0000 H       1  UNL1        0.0654
     28 H           1.4643   -1.1052    0.0000 H       1  UNL1        0.0619
     29 H           8.7343    0.4439    0.0000 H       1  UNL1        0.2923
     30 H           7.5908    1.7390    0.0000 H       1  UNL1        0.0660
     31 H           7.8079    2.5885    0.0000 H       1  UNL1        0.0660
     32 H           6.9584    2.8056    0.0000 H       1  UNL1        0.0660
     33 H           2.3843    2.0785    0.0000 H       1  UNL1        0.2922
@<TRIPOS>BOND
     1     1    12    1
     2     1    21    1
     3     2    15    1
     4     2    29    1
     5     3    10    2
     6     4    11    2
     7     5    16    1
     8     5    33    1
     9     6     7   ar
    10     6    10    1
    11     6    12   ar
    12     7    11    1
    13     7    13   ar
    14     8     9   ar
    15     8    10    1
    16     8    16   ar
    17     9    11    1
    18     9    17   ar
    19    12    15   ar
    20    13    14   ar
    21    13    22    1
    22    14    15   ar
    23    14    18    1
    24    16    19   ar
    25    17    20   ar
    26    17    23    1
    27    18    24    1
    28    18    25    1
    29    18    26    1
    30    19    20   ar
    31    19    27    1
    32    20    28    1
    33    21    30    1
    34    21    31    1
    35    21    32    1
