@<TRIPOS>MOLECULE
IMPHY007797
 29 31 0 0 0
SMALL
GASTEIGER

@<TRIPOS>ATOM
      1 O           5.3923   -1.6692    0.0000 O.3     1  UNL1       -0.4929
      2 N           4.5274    1.6018    0.0000 N.ar    1  UNL1       -0.3524
      3 N           7.0547    0.4776    0.0000 N.ar    1  UNL1       -0.2499
      4 C           5.0274    0.0630    0.0000 C.ar    1  UNL1        0.0526
      5 C           4.0274    0.0630    0.0000 C.ar    1  UNL1        0.0110
      6 C           5.3364    1.0140    0.0000 C.ar    1  UNL1        0.0767
      7 C           3.7183    1.0140    0.0000 C.ar    1  UNL1        0.0476
      8 C           5.7123   -0.7218    0.0000 C.ar    1  UNL1        0.1478
      9 C           6.3518    1.2463    0.0000 C.ar    1  UNL1        0.0874
     10 C           3.3424   -0.7218    0.0000 C.ar    1  UNL1       -0.0519
     11 C           2.7029    1.2463    0.0000 C.ar    1  UNL1       -0.0378
     12 C           6.7328   -0.5131    0.0000 C.ar    1  UNL1        0.0706
     13 C           2.3219   -0.5131    0.0000 C.ar    1  UNL1       -0.0611
     14 C           2.0000    0.4776    0.0000 C.ar    1  UNL1       -0.0598
     15 C           6.6498    2.2008    0.0000 C.2     1  UNL1       -0.0414
     16 C           6.0528   -2.4200    0.0000 C.3     1  UNL1        0.0789
     17 C           7.6255    2.4200    0.0000 C.2     1  UNL1       -0.0966
     18 H           4.5274    2.2218    0.0000 H       1  UNL1        0.1660
     19 H           3.5408   -1.3092    0.0000 H       1  UNL1        0.0624
     20 H           2.5182    1.8381    0.0000 H       1  UNL1        0.0638
     21 H           7.1459   -0.9754    0.0000 H       1  UNL1        0.0867
     22 H           1.9088   -0.9754    0.0000 H       1  UNL1        0.0618
     23 H           1.3940    0.6088    0.0000 H       1  UNL1        0.0618
     24 H           6.2296    2.6568    0.0000 H       1  UNL1        0.0634
     25 H           5.5873   -2.8295    0.0000 H       1  UNL1        0.0660
     26 H           6.4623   -2.8856    0.0000 H       1  UNL1        0.0660
     27 H           6.5183   -2.0105    0.0000 H       1  UNL1        0.0660
     28 H           8.0456    1.9641    0.0000 H       1  UNL1        0.0535
     29 H           7.8102    3.0119    0.0000 H       1  UNL1        0.0535
@<TRIPOS>BOND
     1     1     8    1
     2     1    16    1
     3     2     6   ar
     4     2     7   ar
     5     2    18    1
     6     3     9   ar
     7     3    12   ar
     8     4     5   ar
     9     4     6   ar
    10     4     8   ar
    11     5     7   ar
    12     5    10   ar
    13     6     9   ar
    14     7    11   ar
    15     8    12   ar
    16     9    15    1
    17    10    13   ar
    18    10    19    1
    19    11    14   ar
    20    11    20    1
    21    12    21    1
    22    13    14   ar
    23    13    22    1
    24    14    23    1
    25    15    17    2
    26    15    24    1
    27    16    25    1
    28    16    26    1
    29    16    27    1
    30    17    28    1
    31    17    29    1
