@<TRIPOS>MOLECULE
IMPHY012127
 41 43 0 0 0
SMALL
GASTEIGER

@<TRIPOS>ATOM
      1 CL          2.6484    0.0000    0.0000 Cl      1  UNL1        0.0000
      2 O           1.1445    4.1294    0.0000 O.3     2  UNL2       -0.3755
      3 O           0.9735    6.2964    0.0000 O.3     2  UNL2       -0.4600
      4 O           0.1113    4.7439    0.0000 O.2     2  UNL2       -0.2505
      5 N           4.5202    5.2714    0.0000 N.4     2  UNL2        0.2490
      6 C           3.6506    4.7694    0.0000 C.3     2  UNL2        0.0412
      7 C           2.7810    5.2714    0.0000 C.2     2  UNL2       -0.0012
      8 C           2.6309    4.5662    0.0000 C.3     2  UNL2        0.0315
      9 C           3.8607    3.7936    0.0000 C.2     2  UNL2        0.0085
     10 C           4.5202    6.2756    0.0000 C.3     2  UNL2       -0.0266
     11 C           5.2602    4.6016    0.0000 C.3     2  UNL2       -0.0111
     12 C           3.6506    6.7776    0.0000 C.3     2  UNL2        0.0123
     13 C           2.7810    6.2756    0.0000 C.2     2  UNL2       -0.0219
     14 C           4.8534    3.6900    0.0000 C.2     2  UNL2       -0.0303
     15 C           2.1114    3.8741    0.0000 C.3     2  UNL2        0.0828
     16 C           1.8834    4.7345    0.0000 C.3     2  UNL2        0.0722
     17 C           3.3543    3.1509    0.0000 C.2     2  UNL2       -0.0542
     18 C           2.2244    2.9928    0.0000 C.2     2  UNL2       -0.0550
     19 C           1.8834    6.8125    0.0000 C.3     2  UNL2        0.1143
     20 C           0.9735    5.2505    0.0000 C.2     2  UNL2        0.3117
     21 C           0.4400    3.4198    0.0000 C.3     2  UNL2        0.0372
     22 H           5.0869    5.5228    0.0000 H       2  UNL2        0.2049
     23 H           2.6827    5.1841    0.0000 H       2  UNL2        0.0359
     24 H           2.0515    4.7868    0.0000 H       2  UNL2        0.0359
     25 H           5.1308    6.1679    0.0000 H       2  UNL2        0.0818
     26 H           4.7322    6.8582    0.0000 H       2  UNL2        0.0818
     27 H           5.7967    4.2908    0.0000 H       2  UNL2        0.0862
     28 H           5.6257    5.1024    0.0000 H       2  UNL2        0.0862
     29 H           4.0491    7.2526    0.0000 H       2  UNL2        0.0363
     30 H           3.2521    7.2526    0.0000 H       2  UNL2        0.0363
     31 H           5.1634    3.1531    0.0000 H       2  UNL2        0.0630
     32 H           1.9079    4.4598    0.0000 H       2  UNL2        0.0642
     33 H           1.4897    4.2555    0.0000 H       2  UNL2        0.0425
     34 H           2.2880    4.2647    0.0000 H       2  UNL2        0.0425
     35 H           3.6630    2.6133    0.0000 H       2  UNL2        0.0620
     36 H           1.8481    2.5000    0.0000 H       2  UNL2        0.0598
     37 H           2.2880    7.2822    0.0000 H       2  UNL2        0.0745
     38 H           1.4897    7.2915    0.0000 H       2  UNL2        0.0745
     39 H           0.0000    3.8566    0.0000 H       2  UNL2        0.0524
     40 H           0.0032    2.9798    0.0000 H       2  UNL2        0.0524
     41 H           0.8800    2.9830    0.0000 H       2  UNL2        0.0524
@<TRIPOS>UNITY_ATOM_ATTR
1 1
charge -1
5 1
charge 1
@<TRIPOS>BOND
     1    15     2    1
     2     2    21    1
     3     3    19    1
     4     3    20    1
     5     4    20    2
     6     5     6    1
     7     5    10    1
     8     5    11    1
     9     5    22    1
    10     6     7    1
    11     6     8    1
    12     6     9    1
    13     7    13    2
    14     7    16    1
    15     8    15    1
    16     8    23    1
    17     8    24    1
    18     9    14    2
    19     9    17    1
    20    10    12    1
    21    10    25    1
    22    10    26    1
    23    11    14    1
    24    11    27    1
    25    11    28    1
    26    12    13    1
    27    12    29    1
    28    12    30    1
    29    13    19    1
    30    14    31    1
    31    15    18    1
    32    15    32    1
    33    16    20    1
    34    16    33    1
    35    16    34    1
    36    17    18    2
    37    17    35    1
    38    18    36    1
    39    19    37    1
    40    19    38    1
    41    21    39    1
    42    21    40    1
    43    21    41    1
