@<TRIPOS>MOLECULE
IMPHY002512
 41 44 0 0 0
SMALL
GASTEIGER

@<TRIPOS>ATOM
      1 O           2.9180    0.8525    0.0000 O.3     1  UNL1       -0.4808
      2 O           2.0000   -1.6960    0.0000 O.3     1  UNL1       -0.4841
      3 O           4.6501   -1.1475    0.0000 O.3     1  UNL1       -0.3728
      4 O           5.6349   -0.3212    0.0000 O.2     1  UNL1       -0.2882
      5 O           6.4203    0.8493    0.0000 O.3     1  UNL1       -0.5056
      6 O           2.0258   -3.7984    0.0000 O.3     1  UNL1       -0.5033
      7 O           4.6622    3.9217    0.0000 O.3     1  UNL1       -0.4946
      8 C           3.7841   -0.6475    0.0000 C.3     1  UNL1        0.1969
      9 C           2.9180   -0.1475    0.0000 C.3     1  UNL1        0.1739
     10 C           3.8001   -1.6890    0.0000 C.ar    1  UNL1        0.0405
     11 C           2.0080   -0.6544    0.0000 C.3     1  UNL1        0.1300
     12 C           4.6501   -0.1475    0.0000 C.2     1  UNL1        0.2099
     13 C           4.6501    0.8525    0.0000 C.ar    1  UNL1        0.1042
     14 C           2.9021   -2.2168    0.0000 C.ar    1  UNL1        0.1683
     15 C           3.7841    1.3525    0.0000 C.ar    1  UNL1        0.1388
     16 C           4.7520   -2.2096    0.0000 C.ar    1  UNL1       -0.0516
     17 C           5.5601    1.3593    0.0000 C.ar    1  UNL1        0.1373
     18 C           2.8937   -3.3017    0.0000 C.ar    1  UNL1        0.1588
     19 C           3.7680    2.3940    0.0000 C.ar    1  UNL1        0.0230
     20 C           5.5681    2.4009    0.0000 C.ar    1  UNL1        0.0335
     21 C           4.6660    2.9217    0.0000 C.ar    1  UNL1        0.1300
     22 C           4.7688   -3.2945    0.0000 C.ar    1  UNL1       -0.0577
     23 C           3.8334   -3.8442    0.0000 C.ar    1  UNL1       -0.0165
     24 C           6.4361    2.8976    0.0000 C.3     1  UNL1       -0.0327
     25 C           3.7942    4.4184    0.0000 C.3     1  UNL1        0.0788
     26 H           2.3835    0.1666    0.0000 H       1  UNL1        0.0805
     27 H           1.8035   -0.0691    0.0000 H       1  UNL1        0.0735
     28 H           1.3964   -0.7557    0.0000 H       1  UNL1        0.0735
     29 H           5.2829   -1.8894    0.0000 H       1  UNL1        0.0622
     30 H           5.2327   -1.3597    0.0000 H       1  UNL1        0.2114
     31 H           3.2275    2.6978    0.0000 H       1  UNL1        0.0691
     32 H           5.3093   -3.5983    0.0000 H       1  UNL1        0.0619
     33 H           3.8357   -4.4642    0.0000 H       1  UNL1        0.0655
     34 H           6.7440    2.3595    0.0000 H       1  UNL1        0.0280
     35 H           6.9742    3.2055    0.0000 H       1  UNL1        0.0280
     36 H           6.1281    3.4357    0.0000 H       1  UNL1        0.0280
     37 H           6.9608    1.1531    0.0000 H       1  UNL1        0.2922
     38 H           2.0234   -4.4184    0.0000 H       1  UNL1        0.2923
     39 H           4.1022    4.9565    0.0000 H       1  UNL1        0.0660
     40 H           3.2561    4.7263    0.0000 H       1  UNL1        0.0660
     41 H           3.4863    3.8803    0.0000 H       1  UNL1        0.0660
@<TRIPOS>BOND
     1     1     9    1
     2     1    15    1
     3     2    11    1
     4     2    14    1
     5     3     8    1
     6     3    30    1
     7     4    12    2
     8     5    17    1
     9     5    37    1
    10     6    18    1
    11     6    38    1
    12     7    21    1
    13     7    25    1
    14     8     9    1
    15     8    10    1
    16     8    12    1
    17     9    11    1
    18     9    26    1
    19    10    14   ar
    20    10    16   ar
    21    11    27    1
    22    11    28    1
    23    12    13    1
    24    13    15   ar
    25    13    17   ar
    26    14    18   ar
    27    15    19   ar
    28    16    22   ar
    29    16    29    1
    30    17    20   ar
    31    18    23   ar
    32    19    21   ar
    33    19    31    1
    34    20    21   ar
    35    20    24    1
    36    22    23   ar
    37    22    32    1
    38    23    33    1
    39    24    34    1
    40    24    35    1
    41    24    36    1
    42    25    39    1
    43    25    40    1
    44    25    41    1
