@<TRIPOS>MOLECULE
IMPHY008423
 36 37 0 0 0
SMALL
GASTEIGER

@<TRIPOS>ATOM
      1 O           2.5369   -0.5053    0.0000 O.3     1  UNL1       -0.3837
      2 O           2.5369    1.4947    0.0000 O.2     1  UNL1       -0.2899
      3 C           5.1350   -0.0053    0.0000 C.3     1  UNL1       -0.0136
      4 C           6.0290   -0.5399    0.0000 C.3     1  UNL1       -0.0396
      5 C           4.2690   -0.5053    0.0000 C.3     1  UNL1       -0.0040
      6 C           6.9350   -0.0261    0.0000 C.3     1  UNL1       -0.0196
      7 C           5.1350    0.9947    0.0000 C.2     1  UNL1       -0.0627
      8 C           6.9350    1.0156    0.0000 C.3     1  UNL1       -0.0428
      9 C           6.0290    1.5294    0.0000 C.3     1  UNL1       -0.0305
     10 C           3.4030   -0.0053    0.0000 C.3     1  UNL1        0.1200
     11 C           4.2690    1.4947    0.0000 C.2     1  UNL1       -0.0171
     12 C           4.2690   -1.5053    0.0000 C.3     1  UNL1       -0.0591
     13 C           3.4030    0.9947    0.0000 C.2     1  UNL1        0.1845
     14 C           7.7991   -0.5294    0.0000 C.2     1  UNL1       -0.0766
     15 C           8.6671   -0.0328    0.0000 C.3     1  UNL1       -0.0438
     16 C           7.7953   -1.5294    0.0000 C.2     1  UNL1       -0.0994
     17 H           5.1285   -0.8552    0.0000 H       1  UNL1        0.0349
     18 H           3.7320   -0.8153    0.0000 H       1  UNL1        0.0333
     19 H           5.6244   -1.0097    0.0000 H       1  UNL1        0.0277
     20 H           6.4226   -1.0189    0.0000 H       1  UNL1        0.0277
     21 H           7.4726    0.2829    0.0000 H       1  UNL1        0.0346
     22 H           7.5459    0.9095    0.0000 H       1  UNL1        0.0274
     23 H           7.1441    1.5992    0.0000 H       1  UNL1        0.0274
     24 H           6.4226    2.0084    0.0000 H       1  UNL1        0.0310
     25 H           5.6244    1.9992    0.0000 H       1  UNL1        0.0310
     26 H           2.8660    0.3047    0.0000 H       1  UNL1        0.0679
     27 H           4.2690    2.1147    0.0000 H       1  UNL1        0.0653
     28 H           3.6490   -1.5053    0.0000 H       1  UNL1        0.0234
     29 H           4.2690   -2.1253    0.0000 H       1  UNL1        0.0234
     30 H           4.8890   -1.5053    0.0000 H       1  UNL1        0.0234
     31 H           2.0000   -0.1953    0.0000 H       1  UNL1        0.2104
     32 H           8.9750   -0.5709    0.0000 H       1  UNL1        0.0274
     33 H           9.2052    0.2752    0.0000 H       1  UNL1        0.0274
     34 H           8.3591    0.5054    0.0000 H       1  UNL1        0.0274
     35 H           7.2571   -1.8373    0.0000 H       1  UNL1        0.0534
     36 H           8.3310   -1.8415    0.0000 H       1  UNL1        0.0534
@<TRIPOS>BOND
     1    10     1    1
     2     1    31    1
     3     2    13    2
     4     3     4    1
     5     3     5    1
     6     3     7    1
     7     3    17    1
     8     4     6    1
     9     4    19    1
    10     4    20    1
    11     5    10    1
    12     5    12    1
    13     5    18    1
    14     6     8    1
    15     6    14    1
    16     6    21    1
    17     7     9    1
    18     7    11    2
    19     8     9    1
    20     8    22    1
    21     8    23    1
    22     9    24    1
    23     9    25    1
    24    10    13    1
    25    10    26    1
    26    11    13    1
    27    11    27    1
    28    12    28    1
    29    12    29    1
    30    12    30    1
    31    14    15    1
    32    14    16    2
    33    15    32    1
    34    15    33    1
    35    15    34    1
    36    16    35    1
    37    16    36    1
