@<TRIPOS>MOLECULE
IMPHY008241
 20 22 0 0 0
SMALL
GASTEIGER

@<TRIPOS>ATOM
      1 O           7.3424   -0.8047    0.0000 O.3     1  UNL1       -0.4526
      2 O           7.3424    0.8047    0.0000 O.3     1  UNL1       -0.4525
      3 O           3.7702    1.0347    0.0000 O.2     1  UNL1       -0.4220
      4 O           2.0000    1.0241    0.0000 O.2     1  UNL1       -0.2452
      5 C           6.3961   -0.5000    0.0000 C.ar    1  UNL1        0.1670
      6 C           6.3961    0.5000    0.0000 C.ar    1  UNL1        0.1698
      7 C           4.6641   -0.5000    0.0000 C.ar    1  UNL1        0.0213
      8 C           4.6641    0.5000    0.0000 C.ar    1  UNL1        0.1428
      9 C           5.5301   -1.0000    0.0000 C.ar    1  UNL1       -0.0055
     10 C           5.5301    1.0000    0.0000 C.ar    1  UNL1        0.0269
     11 C           7.9260    0.0000    0.0000 C.3     1  UNL1        0.2332
     12 C           3.7702   -1.0347    0.0000 C.ar    1  UNL1       -0.0442
     13 C           2.8641   -0.5208    0.0000 C.ar    1  UNL1        0.0236
     14 C           2.8641    0.5208    0.0000 C.ar    1  UNL1        0.3372
     15 H           5.5301   -1.6200    0.0000 H       1  UNL1        0.0662
     16 H           5.5301    1.6200    0.0000 H       1  UNL1        0.0692
     17 H           8.3869   -0.4147    0.0000 H       1  UNL1        0.1166
     18 H           8.3869    0.4147    0.0000 H       1  UNL1        0.1166
     19 H           3.7773   -1.6546    0.0000 H       1  UNL1        0.0627
     20 H           2.3284   -0.8329    0.0000 H       1  UNL1        0.0689
@<TRIPOS>BOND
     1     1     5    1
     2     1    11    1
     3     2     6    1
     4     2    11    1
     5     3     8   ar
     6     3    14   ar
     7     4    14    2
     8     5     6   ar
     9     5     9   ar
    10     6    10   ar
    11     7     8   ar
    12     7     9   ar
    13     7    12   ar
    14     8    10   ar
    15     9    15    1
    16    10    16    1
    17    11    17    1
    18    11    18    1
    19    12    13   ar
    20    12    19    1
    21    13    14   ar
    22    13    20    1
