@<TRIPOS>MOLECULE
IMPHY015894
 60 60 0 0 0
SMALL
GASTEIGER

@<TRIPOS>ATOM
      1 O          10.6603   -1.5000    0.0000 O.3     1  UNL1       -0.4611
      2 O          14.1244    0.5000    0.0000 O.3     1  UNL1       -0.4609
      3 O          11.5263    0.0000    0.0000 O.2     1  UNL1       -0.2449
      4 O          12.3923    0.5000    0.0000 O.2     1  UNL1       -0.2449
      5 C           6.3301   -1.0000    0.0000 C.3     1  UNL1       -0.0531
      6 C           5.4641   -1.5000    0.0000 C.3     1  UNL1       -0.0531
      7 C           7.1962   -1.5000    0.0000 C.3     1  UNL1       -0.0530
      8 C           4.5981   -1.0000    0.0000 C.3     1  UNL1       -0.0531
      9 C           8.0622   -1.0000    0.0000 C.3     1  UNL1       -0.0500
     10 C           3.7320   -1.5000    0.0000 C.3     1  UNL1       -0.0533
     11 C           8.9282   -1.5000    0.0000 C.3     1  UNL1       -0.0185
     12 C           2.8660   -1.0000    0.0000 C.3     1  UNL1       -0.0559
     13 C           9.7942   -1.0000    0.0000 C.3     1  UNL1        0.0928
     14 C           2.0000   -1.5000    0.0000 C.3     1  UNL1       -0.0653
     15 C          14.9904    2.0000    0.0000 C.3     1  UNL1       -0.0123
     16 C          14.1244    1.5000    0.0000 C.3     1  UNL1        0.0951
     17 C          11.5263   -1.0000    0.0000 C.2     1  UNL1        0.3400
     18 C          12.3923   -1.5000    0.0000 C.ar    1  UNL1        0.0729
     19 C          14.9904    3.0000    0.0000 C.3     1  UNL1       -0.0596
     20 C          15.8564    1.5000    0.0000 C.3     1  UNL1       -0.0596
     21 C          13.2583   -1.0000    0.0000 C.ar    1  UNL1        0.0729
     22 C          13.2583    0.0000    0.0000 C.2     1  UNL1        0.3400
     23 C          12.3923   -2.5000    0.0000 C.ar    1  UNL1       -0.0470
     24 C          14.1244   -1.5000    0.0000 C.ar    1  UNL1       -0.0470
     25 C          13.2583   -3.0000    0.0000 C.ar    1  UNL1       -0.0609
     26 C          14.1244   -2.5000    0.0000 C.ar    1  UNL1       -0.0609
     27 H           6.7287   -0.5251    0.0000 H       1  UNL1        0.0265
     28 H           5.9316   -0.5251    0.0000 H       1  UNL1        0.0265
     29 H           5.0656   -1.9750    0.0000 H       1  UNL1        0.0265
     30 H           5.8626   -1.9750    0.0000 H       1  UNL1        0.0265
     31 H           6.7976   -1.9750    0.0000 H       1  UNL1        0.0265
     32 H           7.5947   -1.9750    0.0000 H       1  UNL1        0.0265
     33 H           4.9966   -0.5251    0.0000 H       1  UNL1        0.0265
     34 H           4.1996   -0.5251    0.0000 H       1  UNL1        0.0265
     35 H           8.4607   -0.5251    0.0000 H       1  UNL1        0.0266
     36 H           7.6636   -0.5251    0.0000 H       1  UNL1        0.0266
     37 H           3.3335   -1.9750    0.0000 H       1  UNL1        0.0265
     38 H           4.1306   -1.9750    0.0000 H       1  UNL1        0.0265
     39 H           8.5297   -1.9750    0.0000 H       1  UNL1        0.0298
     40 H           9.3267   -1.9750    0.0000 H       1  UNL1        0.0298
     41 H           3.2646   -0.5251    0.0000 H       1  UNL1        0.0263
     42 H           2.4675   -0.5251    0.0000 H       1  UNL1        0.0263
     43 H          10.1928   -0.5251    0.0000 H       1  UNL1        0.0697
     44 H           9.3957   -0.5251    0.0000 H       1  UNL1        0.0697
     45 H           1.6900   -0.9631    0.0000 H       1  UNL1        0.0230
     46 H           1.4631   -1.8100    0.0000 H       1  UNL1        0.0230
     47 H           2.3100   -2.0369    0.0000 H       1  UNL1        0.0230
     48 H          15.5273    2.3100    0.0000 H       1  UNL1        0.0328
     49 H          13.9123    2.0826    0.0000 H       1  UNL1        0.0700
     50 H          13.5138    1.3923    0.0000 H       1  UNL1        0.0700
     51 H          15.6104    3.0000    0.0000 H       1  UNL1        0.0233
     52 H          14.9904    3.6200    0.0000 H       1  UNL1        0.0233
     53 H          14.3704    3.0000    0.0000 H       1  UNL1        0.0233
     54 H          15.5464    0.9631    0.0000 H       1  UNL1        0.0233
     55 H          16.3933    1.1900    0.0000 H       1  UNL1        0.0233
     56 H          16.1664    2.0369    0.0000 H       1  UNL1        0.0233
     57 H          11.8554   -2.8100    0.0000 H       1  UNL1        0.0626
     58 H          14.6613   -1.1900    0.0000 H       1  UNL1        0.0626
     59 H          13.2583   -3.6200    0.0000 H       1  UNL1        0.0618
     60 H          14.6613   -2.8100    0.0000 H       1  UNL1        0.0618
@<TRIPOS>BOND
     1     1    13    1
     2     1    17    1
     3     2    16    1
     4     2    22    1
     5     3    17    2
     6     4    22    2
     7     5     6    1
     8     5     7    1
     9     5    27    1
    10     5    28    1
    11     6     8    1
    12     6    29    1
    13     6    30    1
    14     7     9    1
    15     7    31    1
    16     7    32    1
    17     8    10    1
    18     8    33    1
    19     8    34    1
    20     9    11    1
    21     9    35    1
    22     9    36    1
    23    10    12    1
    24    10    37    1
    25    10    38    1
    26    11    13    1
    27    11    39    1
    28    11    40    1
    29    12    14    1
    30    12    41    1
    31    12    42    1
    32    13    43    1
    33    13    44    1
    34    14    45    1
    35    14    46    1
    36    14    47    1
    37    15    16    1
    38    15    19    1
    39    15    20    1
    40    15    48    1
    41    16    49    1
    42    16    50    1
    43    17    18    1
    44    18    21   ar
    45    18    23   ar
    46    19    51    1
    47    19    52    1
    48    19    53    1
    49    20    54    1
    50    20    55    1
    51    20    56    1
    52    21    22    1
    53    21    24   ar
    54    23    25   ar
    55    23    57    1
    56    24    26   ar
    57    24    58    1
    58    25    26   ar
    59    25    59    1
    60    26    60    1
