@<TRIPOS>MOLECULE
IMPHY016036
 21 21 0 0 0
SMALL
GASTEIGER

@<TRIPOS>ATOM
      1 C           2.5878   -0.8649    0.0000 C.3     1  UNL1       -0.0436
      2 C           3.0878    0.6739    0.0000 C.3     1  UNL1       -0.0436
      3 C           2.2788    0.0861    0.0000 C.3     1  UNL1       -0.0479
      4 C           3.5878   -0.8649    0.0000 C.3     1  UNL1       -0.0502
      5 C           3.8968    0.0861    0.0000 C.3     1  UNL1       -0.0502
      6 C           2.0000   -1.6739    0.0000 C.3     1  UNL1       -0.0624
      7 C           3.0878    1.6739    0.0000 C.3     1  UNL1       -0.0624
      8 H           1.9754   -0.7679    0.0000 H       1  UNL1        0.0298
      9 H           3.6402    0.9554    0.0000 H       1  UNL1        0.0298
     10 H           1.9688    0.6231    0.0000 H       1  UNL1        0.0270
     11 H           1.7124   -0.1660    0.0000 H       1  UNL1        0.0270
     12 H           3.5230   -1.4815    0.0000 H       1  UNL1        0.0268
     13 H           4.1942   -0.9938    0.0000 H       1  UNL1        0.0268
     14 H           4.4632   -0.1660    0.0000 H       1  UNL1        0.0268
     15 H           4.2068    0.6231    0.0000 H       1  UNL1        0.0268
     16 H           1.4984   -1.3095    0.0000 H       1  UNL1        0.0232
     17 H           1.6356   -2.1755    0.0000 H       1  UNL1        0.0232
     18 H           2.5016   -2.0384    0.0000 H       1  UNL1        0.0232
     19 H           3.7078    1.6739    0.0000 H       1  UNL1        0.0232
     20 H           3.0878    2.2939    0.0000 H       1  UNL1        0.0232
     21 H           2.4678    1.6739    0.0000 H       1  UNL1        0.0232
@<TRIPOS>BOND
     1     1     3    1
     2     1     4    1
     3     1     6    1
     4     1     8    1
     5     2     3    1
     6     2     5    1
     7     2     7    1
     8     2     9    1
     9     3    10    1
    10     3    11    1
    11     4     5    1
    12     4    12    1
    13     4    13    1
    14     5    14    1
    15     5    15    1
    16     6    16    1
    17     6    17    1
    18     6    18    1
    19     7    19    1
    20     7    20    1
    21     7    21    1
