@<TRIPOS>MOLECULE
IMPHY012107
 26 28 0 0 0
SMALL
GASTEIGER

@<TRIPOS>ATOM
      1 C           2.8368   -0.2682    0.0000 C.3     1  UNL1       -0.0403
      2 C           4.5092   -0.2682    0.0000 C.3     1  UNL1       -0.0403
      3 C           2.9819   -0.7033    0.0000 C.3     1  UNL1       -0.0403
      4 C           3.6730    1.1801    0.0000 C.3     1  UNL1       -0.0403
      5 C           3.6730   -0.5710    0.0000 C.3     1  UNL1       -0.0473
      6 C           2.0000   -0.7510    0.0000 C.3     1  UNL1       -0.0473
      7 C           2.8368    0.6973    0.0000 C.3     1  UNL1       -0.0473
      8 C           3.8876   -1.1801    0.0000 C.3     1  UNL1       -0.0473
      9 C           4.5092    0.6973    0.0000 C.3     1  UNL1       -0.0473
     10 C           2.9819    0.3420    0.0000 C.3     1  UNL1       -0.0473
     11 H           3.3444    0.0878    0.0000 H       1  UNL1        0.0301
     12 H           5.1016   -0.4509    0.0000 H       1  UNL1        0.0301
     13 H           2.8478   -1.3086    0.0000 H       1  UNL1        0.0301
     14 H           3.6730    1.8001    0.0000 H       1  UNL1        0.0301
     15 H           3.3030   -1.0685    0.0000 H       1  UNL1        0.0271
     16 H           4.0430   -1.0685    0.0000 H       1  UNL1        0.0271
     17 H           1.5188   -0.3601    0.0000 H       1  UNL1        0.0271
     18 H           1.8068   -1.3401    0.0000 H       1  UNL1        0.0271
     19 H           2.6247    1.2799    0.0000 H       1  UNL1        0.0271
     20 H           2.2262    0.5897    0.0000 H       1  UNL1        0.0271
     21 H           3.5782   -1.7174    0.0000 H       1  UNL1        0.0271
     22 H           4.4127   -1.5097    0.0000 H       1  UNL1        0.0271
     23 H           5.1198    0.5897    0.0000 H       1  UNL1        0.0271
     24 H           4.7212    1.2799    0.0000 H       1  UNL1        0.0271
     25 H           2.6383    0.8580    0.0000 H       1  UNL1        0.0271
     26 H           2.3885    0.1625    0.0000 H       1  UNL1        0.0271
@<TRIPOS>BOND
     1     1     5    1
     2     1     6    1
     3     1     7    1
     4     1    11    1
     5     2     5    1
     6     2     8    1
     7     2     9    1
     8     2    12    1
     9     3     6    1
    10     3     8    1
    11     3    10    1
    12     3    13    1
    13     4     7    1
    14     4     9    1
    15     4    10    1
    16     4    14    1
    17     5    15    1
    18     5    16    1
    19     6    17    1
    20     6    18    1
    21     7    19    1
    22     7    20    1
    23     8    21    1
    24     8    22    1
    25     9    23    1
    26     9    24    1
    27    10    25    1
    28    10    26    1
