@<TRIPOS>MOLECULE
IMPHY015624
 123 122 0 0 0
SMALL
GASTEIGER

@<TRIPOS>ATOM
      1 S          20.1865    0.2500    0.0000 S.3     1  UNL1       -0.1382
      2 O          22.7846    0.7500    0.0000 O.3     1  UNL1       -0.4641
      3 O          17.5885    0.7500    0.0000 O.3     1  UNL1       -0.4641
      4 O          21.9186   -0.7500    0.0000 O.2     1  UNL1       -0.2499
      5 O          18.4545   -0.7500    0.0000 O.2     1  UNL1       -0.2499
      6 C          30.5788    0.2500    0.0000 C.3     1  UNL1       -0.0531
      7 C           9.7942    0.2500    0.0000 C.3     1  UNL1       -0.0531
      8 C          31.4449    0.7500    0.0000 C.3     1  UNL1       -0.0531
      9 C           8.9282    0.7500    0.0000 C.3     1  UNL1       -0.0531
     10 C          29.7128    0.7500    0.0000 C.3     1  UNL1       -0.0531
     11 C          10.6603    0.7500    0.0000 C.3     1  UNL1       -0.0531
     12 C          32.3109    0.2500    0.0000 C.3     1  UNL1       -0.0531
     13 C           8.0622    0.2500    0.0000 C.3     1  UNL1       -0.0531
     14 C          28.8468    0.2500    0.0000 C.3     1  UNL1       -0.0531
     15 C          11.5263    0.2500    0.0000 C.3     1  UNL1       -0.0531
     16 C          33.1769    0.7500    0.0000 C.3     1  UNL1       -0.0531
     17 C           7.1962    0.7500    0.0000 C.3     1  UNL1       -0.0531
     18 C          27.9808    0.7500    0.0000 C.3     1  UNL1       -0.0531
     19 C          12.3923    0.7500    0.0000 C.3     1  UNL1       -0.0531
     20 C          34.0429    0.2500    0.0000 C.3     1  UNL1       -0.0531
     21 C           6.3301    0.2500    0.0000 C.3     1  UNL1       -0.0531
     22 C          27.1147    0.2500    0.0000 C.3     1  UNL1       -0.0531
     23 C          13.2583    0.2500    0.0000 C.3     1  UNL1       -0.0531
     24 C          34.9090    0.7500    0.0000 C.3     1  UNL1       -0.0531
     25 C           5.4641    0.7500    0.0000 C.3     1  UNL1       -0.0531
     26 C          26.2487    0.7500    0.0000 C.3     1  UNL1       -0.0530
     27 C          14.1244    0.7500    0.0000 C.3     1  UNL1       -0.0530
     28 C          35.7750    0.2500    0.0000 C.3     1  UNL1       -0.0531
     29 C           4.5981    0.2500    0.0000 C.3     1  UNL1       -0.0531
     30 C          25.3827    0.2500    0.0000 C.3     1  UNL1       -0.0500
     31 C          14.9904    0.2500    0.0000 C.3     1  UNL1       -0.0500
     32 C          36.6410    0.7500    0.0000 C.3     1  UNL1       -0.0533
     33 C           3.7320    0.7500    0.0000 C.3     1  UNL1       -0.0533
     34 C          24.5167    0.7500    0.0000 C.3     1  UNL1       -0.0185
     35 C          15.8564    0.7500    0.0000 C.3     1  UNL1       -0.0185
     36 C          37.5070    0.2500    0.0000 C.3     1  UNL1       -0.0559
     37 C           2.8660    0.2500    0.0000 C.3     1  UNL1       -0.0559
     38 C          23.6506    0.2500    0.0000 C.3     1  UNL1        0.0925
     39 C          16.7224    0.2500    0.0000 C.3     1  UNL1        0.0925
     40 C          38.3731    0.7500    0.0000 C.3     1  UNL1       -0.0653
     41 C           2.0000    0.7500    0.0000 C.3     1  UNL1       -0.0653
     42 C          21.9186    0.2500    0.0000 C.2     1  UNL1        0.3170
     43 C          18.4545    0.2500    0.0000 C.2     1  UNL1        0.3170
     44 C          21.0526    0.7500    0.0000 C.3     1  UNL1        0.0916
     45 C          19.3205    0.7500    0.0000 C.3     1  UNL1        0.0916
     46 H          30.1803   -0.2249    0.0000 H       1  UNL1        0.0265
     47 H          30.9774   -0.2249    0.0000 H       1  UNL1        0.0265
     48 H           9.3957   -0.2249    0.0000 H       1  UNL1        0.0265
     49 H          10.1928   -0.2249    0.0000 H       1  UNL1        0.0265
     50 H          31.8434    1.2250    0.0000 H       1  UNL1        0.0265
     51 H          31.0463    1.2250    0.0000 H       1  UNL1        0.0265
     52 H           9.3267    1.2250    0.0000 H       1  UNL1        0.0265
     53 H           8.5297    1.2250    0.0000 H       1  UNL1        0.0265
     54 H          30.1113    1.2250    0.0000 H       1  UNL1        0.0265
     55 H          29.3143    1.2250    0.0000 H       1  UNL1        0.0265
     56 H          11.0588    1.2250    0.0000 H       1  UNL1        0.0265
     57 H          10.2617    1.2250    0.0000 H       1  UNL1        0.0265
     58 H          31.9124   -0.2249    0.0000 H       1  UNL1        0.0265
     59 H          32.7094   -0.2249    0.0000 H       1  UNL1        0.0265
     60 H           7.6636   -0.2249    0.0000 H       1  UNL1        0.0265
     61 H           8.4607   -0.2249    0.0000 H       1  UNL1        0.0265
     62 H          28.4483   -0.2249    0.0000 H       1  UNL1        0.0265
     63 H          29.2453   -0.2249    0.0000 H       1  UNL1        0.0265
     64 H          11.1278   -0.2249    0.0000 H       1  UNL1        0.0265
     65 H          11.9248   -0.2249    0.0000 H       1  UNL1        0.0265
     66 H          33.5754    1.2250    0.0000 H       1  UNL1        0.0265
     67 H          32.7784    1.2250    0.0000 H       1  UNL1        0.0265
     68 H           7.5947    1.2250    0.0000 H       1  UNL1        0.0265
     69 H           6.7976    1.2250    0.0000 H       1  UNL1        0.0265
     70 H          28.3793    1.2250    0.0000 H       1  UNL1        0.0265
     71 H          27.5822    1.2250    0.0000 H       1  UNL1        0.0265
     72 H          12.7908    1.2250    0.0000 H       1  UNL1        0.0265
     73 H          11.9938    1.2250    0.0000 H       1  UNL1        0.0265
     74 H          33.6444   -0.2249    0.0000 H       1  UNL1        0.0265
     75 H          34.4415   -0.2249    0.0000 H       1  UNL1        0.0265
     76 H           5.9316   -0.2249    0.0000 H       1  UNL1        0.0265
     77 H           6.7287   -0.2249    0.0000 H       1  UNL1        0.0265
     78 H          26.7162   -0.2249    0.0000 H       1  UNL1        0.0265
     79 H          27.5133   -0.2249    0.0000 H       1  UNL1        0.0265
     80 H          12.8598   -0.2249    0.0000 H       1  UNL1        0.0265
     81 H          13.6569   -0.2249    0.0000 H       1  UNL1        0.0265
     82 H          35.3075    1.2250    0.0000 H       1  UNL1        0.0265
     83 H          34.5104    1.2250    0.0000 H       1  UNL1        0.0265
     84 H           5.8626    1.2250    0.0000 H       1  UNL1        0.0265
     85 H           5.0656    1.2250    0.0000 H       1  UNL1        0.0265
     86 H          26.6472    1.2250    0.0000 H       1  UNL1        0.0265
     87 H          25.8502    1.2250    0.0000 H       1  UNL1        0.0265
     88 H          14.5229    1.2250    0.0000 H       1  UNL1        0.0265
     89 H          13.7258    1.2250    0.0000 H       1  UNL1        0.0265
     90 H          35.3765   -0.2249    0.0000 H       1  UNL1        0.0265
     91 H          36.1735   -0.2249    0.0000 H       1  UNL1        0.0265
     92 H           4.1996   -0.2249    0.0000 H       1  UNL1        0.0265
     93 H           4.9966   -0.2249    0.0000 H       1  UNL1        0.0265
     94 H          24.9842   -0.2249    0.0000 H       1  UNL1        0.0266
     95 H          25.7812   -0.2249    0.0000 H       1  UNL1        0.0266
     96 H          14.5919   -0.2249    0.0000 H       1  UNL1        0.0266
     97 H          15.3889   -0.2249    0.0000 H       1  UNL1        0.0266
     98 H          37.0395    1.2250    0.0000 H       1  UNL1        0.0265
     99 H          36.2425    1.2250    0.0000 H       1  UNL1        0.0265
    100 H           4.1306    1.2250    0.0000 H       1  UNL1        0.0265
    101 H           3.3335    1.2250    0.0000 H       1  UNL1        0.0265
    102 H          24.9152    1.2250    0.0000 H       1  UNL1        0.0298
    103 H          24.1181    1.2250    0.0000 H       1  UNL1        0.0298
    104 H          16.2549    1.2250    0.0000 H       1  UNL1        0.0298
    105 H          15.4579    1.2250    0.0000 H       1  UNL1        0.0298
    106 H          37.1085   -0.2249    0.0000 H       1  UNL1        0.0263
    107 H          37.9056   -0.2249    0.0000 H       1  UNL1        0.0263
    108 H           2.4675   -0.2249    0.0000 H       1  UNL1        0.0263
    109 H           3.2646   -0.2249    0.0000 H       1  UNL1        0.0263
    110 H          23.2521   -0.2249    0.0000 H       1  UNL1        0.0697
    111 H          24.0492   -0.2249    0.0000 H       1  UNL1        0.0697
    112 H          16.3239   -0.2249    0.0000 H       1  UNL1        0.0697
    113 H          17.1210   -0.2249    0.0000 H       1  UNL1        0.0697
    114 H          38.6831    0.2131    0.0000 H       1  UNL1        0.0230
    115 H          38.9100    1.0600    0.0000 H       1  UNL1        0.0230
    116 H          38.0631    1.2869    0.0000 H       1  UNL1        0.0230
    117 H           2.3100    1.2869    0.0000 H       1  UNL1        0.0230
    118 H           1.4631    1.0600    0.0000 H       1  UNL1        0.0230
    119 H           1.6900    0.2131    0.0000 H       1  UNL1        0.0230
    120 H          21.4511    1.2250    0.0000 H       1  UNL1        0.0490
    121 H          20.6540    1.2250    0.0000 H       1  UNL1        0.0490
    122 H          19.7190    1.2250    0.0000 H       1  UNL1        0.0490
    123 H          18.9220    1.2250    0.0000 H       1  UNL1        0.0490
@<TRIPOS>BOND
     1     1    44    1
     2     1    45    1
     3     2    38    1
     4     2    42    1
     5     3    39    1
     6     3    43    1
     7     4    42    2
     8     5    43    2
     9     6     8    1
    10     6    10    1
    11     6    46    1
    12     6    47    1
    13     7     9    1
    14     7    11    1
    15     7    48    1
    16     7    49    1
    17     8    12    1
    18     8    50    1
    19     8    51    1
    20     9    13    1
    21     9    52    1
    22     9    53    1
    23    10    14    1
    24    10    54    1
    25    10    55    1
    26    11    15    1
    27    11    56    1
    28    11    57    1
    29    12    16    1
    30    12    58    1
    31    12    59    1
    32    13    17    1
    33    13    60    1
    34    13    61    1
    35    14    18    1
    36    14    62    1
    37    14    63    1
    38    15    19    1
    39    15    64    1
    40    15    65    1
    41    16    20    1
    42    16    66    1
    43    16    67    1
    44    17    21    1
    45    17    68    1
    46    17    69    1
    47    18    22    1
    48    18    70    1
    49    18    71    1
    50    19    23    1
    51    19    72    1
    52    19    73    1
    53    20    24    1
    54    20    74    1
    55    20    75    1
    56    21    25    1
    57    21    76    1
    58    21    77    1
    59    22    26    1
    60    22    78    1
    61    22    79    1
    62    23    27    1
    63    23    80    1
    64    23    81    1
    65    24    28    1
    66    24    82    1
    67    24    83    1
    68    25    29    1
    69    25    84    1
    70    25    85    1
    71    26    30    1
    72    26    86    1
    73    26    87    1
    74    27    31    1
    75    27    88    1
    76    27    89    1
    77    28    32    1
    78    28    90    1
    79    28    91    1
    80    29    33    1
    81    29    92    1
    82    29    93    1
    83    30    34    1
    84    30    94    1
    85    30    95    1
    86    31    35    1
    87    31    96    1
    88    31    97    1
    89    32    36    1
    90    32    98    1
    91    32    99    1
    92    33    37    1
    93    33   100    1
    94    33   101    1
    95    34    38    1
    96    34   102    1
    97    34   103    1
    98    35    39    1
    99    35   104    1
   100    35   105    1
   101    36    40    1
   102    36   106    1
   103    36   107    1
   104    37    41    1
   105    37   108    1
   106    37   109    1
   107    38   110    1
   108    38   111    1
   109    39   112    1
   110    39   113    1
   111    40   114    1
   112    40   115    1
   113    40   116    1
   114    41   117    1
   115    41   118    1
   116    41   119    1
   117    42    44    1
   118    43    45    1
   119    44   120    1
   120    44   121    1
   121    45   122    1
   122    45   123    1
