@<TRIPOS>MOLECULE
IMPHY010126
 17 18 0 0 0
SMALL
GASTEIGER

@<TRIPOS>ATOM
      1 C           0.8660    2.5000    0.0000 C.2     1  UNL1       -0.0091
      2 C          -4.4641    1.0000    0.0000 C.3     1  UNL1        0.0329
      3 C          -3.9641    1.8660    0.0000 C.3     1  UNL1        0.0329
      4 C           0.0000   -1.0000    0.0000 C.3     1  UNL1        0.0003
      5 C           1.7321    0.0000    0.0000 C.3     1  UNL1        0.0044
      6 C           1.7321    1.0000    0.0000 C.3     1  UNL1        0.0220
      7 C          -1.7321    0.0000    0.0000 C.3     1  UNL1        0.0001
      8 C           0.8660   -0.5000    0.0000 C.3     1  UNL1        0.0006
      9 C          -0.8660   -0.5000    0.0000 C.3     1  UNL1        0.0003
     10 C          -0.8660    1.5000    0.0000 C.3     1  UNL1        0.0041
     11 C          -2.5981    1.5000    0.0000 C.3     1  UNL1        0.0304
     12 C           0.8660    1.5000    0.0000 C.2     1  UNL1       -0.0446
     13 C          -1.7321    1.0000    0.0000 C.3     1  UNL1        0.0028
     14 C           0.0000    1.0000    0.0000 C.3     1  UNL1        0.0183
     15 C          -3.4641    1.0000    0.0000 C.3     1  UNL1        0.1268
     16 C           0.0000    0.0000    0.0000 C.3     1  UNL1        0.0034
     17 O          -3.4641    0.0000    0.0000 O.3     1  UNL1       -0.2257
@<TRIPOS>BOND
     1     1    12    2
     2     2    15    1
     3     3    15    1
     4     4    16    1
     5     5     6    1
     6     5     8    1
     7     6    12    1
     8     7     9    1
     9     7    13    1
    10     8    16    1
    11     9    16    1
    12    10    13    1
    13    10    14    1
    14    11    13    1
    15    11    15    1
    16    12    14    1
    17    14    16    1
    18    15    17    1
