@<TRIPOS>MOLECULE
IMPHY006610
 28 28 0 0 0
SMALL
GASTEIGER

@<TRIPOS>ATOM
      1 O           2.5369    0.5000    0.0000 O.3     1  UNL1       -0.5065
      2 C           4.2690    1.5000    0.0000 C.3     1  UNL1       -0.0092
      3 C           4.2690    0.5000    0.0000 C.ar    1  UNL1       -0.0006
      4 C           4.2690    2.5000    0.0000 C.3     1  UNL1       -0.0559
      5 C           5.2690    1.5000    0.0000 C.3     1  UNL1       -0.0559
      6 C           3.2690    1.5000    0.0000 C.3     1  UNL1       -0.0559
      7 C           3.4030    0.0000    0.0000 C.ar    1  UNL1        0.1208
      8 C           5.1350    0.0000    0.0000 C.ar    1  UNL1       -0.0544
      9 C           3.4030   -1.0000    0.0000 C.ar    1  UNL1       -0.0170
     10 C           4.2690   -1.5000    0.0000 C.ar    1  UNL1       -0.0470
     11 C           5.1350   -1.0000    0.0000 C.ar    1  UNL1       -0.0583
     12 C           4.2690   -2.5000    0.0000 C.3     1  UNL1       -0.0396
     13 H           4.8890    2.5000    0.0000 H       1  UNL1        0.0238
     14 H           4.2690    3.1200    0.0000 H       1  UNL1        0.0238
     15 H           3.6490    2.5000    0.0000 H       1  UNL1        0.0238
     16 H           5.2690    0.8800    0.0000 H       1  UNL1        0.0238
     17 H           5.8890    1.5000    0.0000 H       1  UNL1        0.0238
     18 H           5.2690    2.1200    0.0000 H       1  UNL1        0.0238
     19 H           3.2690    2.1200    0.0000 H       1  UNL1        0.0238
     20 H           2.6490    1.5000    0.0000 H       1  UNL1        0.0238
     21 H           3.2690    0.8800    0.0000 H       1  UNL1        0.0238
     22 H           5.6720    0.3100    0.0000 H       1  UNL1        0.0622
     23 H           2.8660   -1.3100    0.0000 H       1  UNL1        0.0657
     24 H           5.6720   -1.3100    0.0000 H       1  UNL1        0.0620
     25 H           3.6490   -2.5000    0.0000 H       1  UNL1        0.0278
     26 H           4.2690   -3.1200    0.0000 H       1  UNL1        0.0278
     27 H           4.8890   -2.5000    0.0000 H       1  UNL1        0.0278
     28 H           2.0000    0.1900    0.0000 H       1  UNL1        0.2921
@<TRIPOS>BOND
     1     1     7    1
     2     1    28    1
     3     2     3    1
     4     2     4    1
     5     2     5    1
     6     2     6    1
     7     3     7   ar
     8     3     8   ar
     9     4    13    1
    10     4    14    1
    11     4    15    1
    12     5    16    1
    13     5    17    1
    14     5    18    1
    15     6    19    1
    16     6    20    1
    17     6    21    1
    18     7     9   ar
    19     8    11   ar
    20     8    22    1
    21     9    10   ar
    22     9    23    1
    23    10    11   ar
    24    10    12    1
    25    11    24    1
    26    12    25    1
    27    12    26    1
    28    12    27    1
