@<TRIPOS>MOLECULE
IMPHY010654
 21 22 0 0 0
SMALL
GASTEIGER

@<TRIPOS>ATOM
      1 C           2.4197   -2.1164    0.0000 C.3     1  UNL1        0.0036
      2 C           2.4197   -3.4468    0.0000 C.3     1  UNL1        0.0098
      3 C           1.1512   -3.8673    0.0000 C.3     1  UNL1        0.1233
      4 C           0.3654   -2.7850    0.0000 C.3     1  UNL1        0.0299
      5 C           1.1512   -1.7096    0.0000 C.3     1  UNL1        0.0006
      6 C           3.4606   -1.2891    0.0000 C.3     1  UNL1        0.0965
      7 C           4.7497   -1.5855    0.0000 C.3     1  UNL1        0.0956
      8 C           5.3357   -2.7850    0.0000 C.2     1  UNL1        0.1709
      9 C           4.7497   -3.9776    0.0000 C.2     1  UNL1        0.0045
     10 C           3.4606   -4.2810    0.0000 C.3     1  UNL1        0.0268
     11 O           0.0000   -4.5360    0.0000 O.3     1  UNL1       -0.2260
     12 C           1.5097   -5.1427    0.0000 C.3     1  UNL1        0.0326
     13 O           4.3982   -0.3516    0.0000 O.3     1  UNL1       -0.3557
     14 C           5.6804   -0.6963    0.0000 C.3     1  UNL1        0.1739
     15 C           3.1573    0.0000    0.0000 C.3     1  UNL1        0.0298
     16 O           6.6662   -2.7850    0.0000 O.2     1  UNL1       -0.2916
     17 C           5.5908   -5.0324    0.0000 C.2     1  UNL1       -0.0448
     18 C           5.0944   -6.2594    0.0000 C.3     1  UNL1        0.0261
     19 C           6.8937   -4.8256    0.0000 C.3     1  UNL1        0.0261
     20 H           2.4197   -4.7773    0.0000 H       1  UNL1        0.0343
     21 H           2.4197   -0.7859    0.0000 H       1  UNL1        0.0339
@<TRIPOS>BOND
     1     1     5    1
     2     1     2    1
     3     1     6    1
     4     1    21    1
     5     2     3    1
     6     2    10    1
     7     2    20    1
     8     3     4    1
     9     3    11    1
    10     3    12    1
    11     4     5    1
    12     6     7    1
    13     6    15    1
    14     6    13    1
    15     7     8    1
    16     8     9    1
    17     8    16    2
    18     9    10    1
    19     9    17    2
    20    13    14    1
    21    17    18    1
    22    17    19    1
