@<TRIPOS>MOLECULE
IMPHY004374
 47 48 0 0 0
SMALL
GASTEIGER

@<TRIPOS>ATOM
      1 O           2.5369    0.5000    0.0000 O.3     1  UNL1       -0.5063
      2 O           4.2690   -2.5000    0.0000 O.3     1  UNL1       -0.4944
      3 O           7.7331   -2.5000    0.0000 O.2     1  UNL1       -0.2873
      4 O          11.1972    0.5000    0.0000 O.3     1  UNL1       -0.5068
      5 C           4.2690    1.5000    0.0000 C.3     1  UNL1        0.0113
      6 C           4.2690    0.5000    0.0000 C.ar    1  UNL1        0.0042
      7 C           5.2690    1.5000    0.0000 C.3     1  UNL1       -0.0522
      8 C           3.2690    1.5000    0.0000 C.3     1  UNL1       -0.0522
      9 C           4.2690    2.5000    0.0000 C.2     1  UNL1       -0.0811
     10 C           5.1350   -0.0000    0.0000 C.ar    1  UNL1       -0.0436
     11 C           3.4030    0.0000    0.0000 C.ar    1  UNL1        0.1243
     12 C           5.1350   -1.0000    0.0000 C.ar    1  UNL1        0.0173
     13 C           3.4030   -1.0000    0.0000 C.ar    1  UNL1        0.0224
     14 C           4.2690   -1.5000    0.0000 C.ar    1  UNL1        0.1307
     15 C           6.0010   -1.5000    0.0000 C.2     1  UNL1       -0.0475
     16 C           5.1350    3.0000    0.0000 C.2     1  UNL1       -0.1018
     17 C           6.8671   -1.0000    0.0000 C.2     1  UNL1       -0.0137
     18 C           7.7331   -1.5000    0.0000 C.2     1  UNL1        0.1861
     19 C           3.4030   -3.0000    0.0000 C.3     1  UNL1        0.0788
     20 C           8.5991   -1.0000    0.0000 C.ar    1  UNL1        0.0219
     21 C           8.5991   -0.0000    0.0000 C.ar    1  UNL1       -0.0475
     22 C           9.4651   -1.5000    0.0000 C.ar    1  UNL1       -0.0475
     23 C           9.4651    0.5000    0.0000 C.ar    1  UNL1       -0.0195
     24 C          10.3312   -1.0000    0.0000 C.ar    1  UNL1       -0.0195
     25 C          10.3312   -0.0000    0.0000 C.ar    1  UNL1        0.1169
     26 H           5.2690    0.8800    0.0000 H       1  UNL1        0.0241
     27 H           5.8890    1.5000    0.0000 H       1  UNL1        0.0241
     28 H           5.2690    2.1200    0.0000 H       1  UNL1        0.0241
     29 H           3.2690    2.1200    0.0000 H       1  UNL1        0.0241
     30 H           2.6490    1.5000    0.0000 H       1  UNL1        0.0241
     31 H           3.2690    0.8800    0.0000 H       1  UNL1        0.0241
     32 H           3.7320    2.8100    0.0000 H       1  UNL1        0.0575
     33 H           5.6720    0.3100    0.0000 H       1  UNL1        0.0629
     34 H           2.8660   -1.3100    0.0000 H       1  UNL1        0.0691
     35 H           6.0010   -2.1200    0.0000 H       1  UNL1        0.0626
     36 H           5.6720    2.6900    0.0000 H       1  UNL1        0.0532
     37 H           5.1350    3.6200    0.0000 H       1  UNL1        0.0532
     38 H           2.0000    0.1900    0.0000 H       1  UNL1        0.2921
     39 H           6.8671   -0.3800    0.0000 H       1  UNL1        0.0656
     40 H           3.0930   -2.4631    0.0000 H       1  UNL1        0.0660
     41 H           2.8660   -3.3100    0.0000 H       1  UNL1        0.0660
     42 H           3.7130   -3.5369    0.0000 H       1  UNL1        0.0660
     43 H           8.0622    0.3100    0.0000 H       1  UNL1        0.0626
     44 H           9.4651   -2.1200    0.0000 H       1  UNL1        0.0626
     45 H           9.4651    1.1200    0.0000 H       1  UNL1        0.0654
     46 H          10.8681   -1.3100    0.0000 H       1  UNL1        0.0654
     47 H          11.7341    0.1900    0.0000 H       1  UNL1        0.2921
@<TRIPOS>BOND
     1     1    11    1
     2     1    38    1
     3     2    14    1
     4     2    19    1
     5     3    18    2
     6     4    25    1
     7     4    47    1
     8     5     6    1
     9     5     7    1
    10     5     8    1
    11     5     9    1
    12     6    10   ar
    13     6    11   ar
    14     7    26    1
    15     7    27    1
    16     7    28    1
    17     8    29    1
    18     8    30    1
    19     8    31    1
    20     9    16    2
    21     9    32    1
    22    10    12   ar
    23    10    33    1
    24    11    13   ar
    25    12    14   ar
    26    12    15    1
    27    13    14   ar
    28    13    34    1
    29    15    17    2
    30    15    35    1
    31    16    36    1
    32    16    37    1
    33    17    18    1
    34    17    39    1
    35    18    20    1
    36    19    40    1
    37    19    41    1
    38    19    42    1
    39    20    21   ar
    40    20    22   ar
    41    21    23   ar
    42    21    43    1
    43    22    24   ar
    44    22    44    1
    45    23    25   ar
    46    23    45    1
    47    24    25   ar
    48    24    46    1
