@<TRIPOS>MOLECULE
IMPHY010227
 101 104 0 0 0
SMALL
GASTEIGER

@<TRIPOS>ATOM
      1 CL          7.1881    1.2832    0.0000 Cl      1  UNL1       -0.0778
      2 O           5.9948    0.4168    0.0000 O.3     1  UNL1       -0.3608
      3 O           5.8930   -1.0862    0.0000 O.3     1  UNL1       -0.4566
      4 O           4.7115    3.1583    0.0000 O.3     1  UNL1       -0.4465
      5 O           6.4435    5.1583    0.0000 O.3     1  UNL1       -0.3686
      6 O           7.7322    5.5646    0.0000 O.3     1  UNL1       -0.3712
      7 O           8.6191   -2.3388    0.0000 O.2     1  UNL1       -0.2751
      8 O           3.8455    4.6583    0.0000 O.2     1  UNL1       -0.2264
      9 O           6.8237   -2.5470    0.0000 O.2     1  UNL1       -0.2487
     10 O          11.5416    1.7922    0.0000 O.3     1  UNL1       -0.3709
     11 O           3.4065   -3.6971    0.0000 O.2     1  UNL1       -0.2755
     12 O           7.1880    2.3058    0.0000 O.3     1  UNL1       -0.4936
     13 N           5.5775    4.6583    0.0000 N.am    1  UNL1       -0.2504
     14 N           8.9435   -0.7078    0.0000 N.am    1  UNL1       -0.2729
     15 N           5.1369   -3.6216    0.0000 N.am    1  UNL1       -0.3024
     16 C           6.9953    0.4171    0.0000 C.3     1  UNL1        0.1306
     17 C           6.4953    1.2831    0.0000 C.3     1  UNL1        0.0977
     18 C           5.5775    1.6583    0.0000 C.3     1  UNL1        0.0226
     19 C           6.7364   -0.5488    0.0000 C.3     1  UNL1        0.1423
     20 C           5.5775    2.6583    0.0000 C.3     1  UNL1        0.1139
     21 C           7.8614   -0.0828    0.0000 C.3     1  UNL1       -0.0298
     22 C           4.5776    1.6714    0.0000 C.3     1  UNL1       -0.0566
     23 C           6.4435    3.1583    0.0000 C.3     1  UNL1        0.0335
     24 C           7.2364   -1.4149    0.0000 C.3     1  UNL1        0.0644
     25 C           6.4435    4.1583    0.0000 C.3     1  UNL1        0.1684
     26 C           7.3096    4.6583    0.0000 C.3     1  UNL1        0.1223
     27 C           8.2364   -1.4149    0.0000 C.2     1  UNL1        0.2232
     28 C           4.7115    4.1583    0.0000 C.2     1  UNL1        0.4027
     29 C           5.9367   -2.0852    0.0000 C.2     1  UNL1        0.3277
     30 C           8.1756    4.1583    0.0000 C.2     1  UNL1       -0.0513
     31 C           5.0933   -2.6225    0.0000 C.3     1  UNL1        0.1175
     32 C           8.9435    0.2922    0.0000 C.ar    1  UNL1        0.0582
     33 C           9.8674   -1.0904    0.0000 C.3     1  UNL1        0.0083
     34 C           4.2063   -2.1608    0.0000 C.3     1  UNL1       -0.0362
     35 C           9.1756    4.1583    0.0000 C.2     1  UNL1       -0.0631
     36 C           8.7284    5.6517    0.0000 C.3     1  UNL1        0.0374
     37 C           9.8096    0.7922    0.0000 C.ar    1  UNL1       -0.0327
     38 C           8.0580    0.7899    0.0000 C.ar    1  UNL1        0.1038
     39 C           9.6756    3.2922    0.0000 C.2     1  UNL1       -0.0602
     40 C           9.8096    1.7922    0.0000 C.ar    1  UNL1       -0.0095
     41 C           4.2935   -4.1588    0.0000 C.2     1  UNL1        0.2162
     42 C          10.6756    2.2922    0.0000 C.3     1  UNL1        0.1046
     43 C          10.6756    3.2922    0.0000 C.2     1  UNL1       -0.0399
     44 C           8.0541    1.8058    0.0000 C.ar    1  UNL1        0.1405
     45 C           8.9358    2.3103    0.0000 C.ar    1  UNL1       -0.0124
     46 C           4.3371   -5.1579    0.0000 C.3     1  UNL1        0.0299
     47 C          11.3827    3.9993    0.0000 C.3     1  UNL1       -0.0407
     48 C           3.4937   -5.6952    0.0000 C.3     1  UNL1       -0.0544
     49 C           5.2241   -5.6196    0.0000 C.3     1  UNL1       -0.0544
     50 C          12.4076    2.2922    0.0000 C.3     1  UNL1        0.0377
     51 C           7.1880    3.3058    0.0000 C.3     1  UNL1        0.0789
     52 H           6.9204    2.0191    0.0000 H       1  UNL1        0.0630
     53 H           5.1728    1.1886    0.0000 H       1  UNL1        0.0360
     54 H           6.1217   -0.4679    0.0000 H       1  UNL1        0.0769
     55 H           4.8414    2.2333    0.0000 H       1  UNL1        0.0739
     56 H           8.1713    0.4542    0.0000 H       1  UNL1        0.0259
     57 H           8.3983   -0.3927    0.0000 H       1  UNL1        0.0259
     58 H           7.5514   -0.6198    0.0000 H       1  UNL1        0.0259
     59 H           4.5695    1.0514    0.0000 H       1  UNL1        0.0234
     60 H           3.9577    1.6795    0.0000 H       1  UNL1        0.0234
     61 H           4.5857    2.2913    0.0000 H       1  UNL1        0.0234
     62 H           7.0541    3.2659    0.0000 H       1  UNL1        0.0346
     63 H           6.6556    2.5756    0.0000 H       1  UNL1        0.0346
     64 H           7.3441   -2.0255    0.0000 H       1  UNL1        0.0396
     65 H           6.6538   -1.6269    0.0000 H       1  UNL1        0.0396
     66 H           7.1491    5.2571    0.0000 H       1  UNL1        0.0686
     67 H           5.2675    5.1952    0.0000 H       1  UNL1        0.1549
     68 H           6.1335    5.6952    0.0000 H       1  UNL1        0.2121
     69 H           8.0151    3.5594    0.0000 H       1  UNL1        0.0599
     70 H           5.6432   -2.9088    0.0000 H       1  UNL1        0.0611
     71 H          10.1047   -0.5176    0.0000 H       1  UNL1        0.0433
     72 H          10.4402   -1.3277    0.0000 H       1  UNL1        0.0433
     73 H           9.6302   -1.6633    0.0000 H       1  UNL1        0.0433
     74 H           3.9200   -2.7107    0.0000 H       1  UNL1        0.0253
     75 H           3.6563   -1.8745    0.0000 H       1  UNL1        0.0253
     76 H           4.4925   -1.6108    0.0000 H       1  UNL1        0.0253
     77 H           9.4856    4.6952    0.0000 H       1  UNL1        0.0615
     78 H           5.6868   -3.9078    0.0000 H       1  UNL1        0.1495
     79 H           8.6744    6.2694    0.0000 H       1  UNL1        0.0524
     80 H           9.3460    5.7058    0.0000 H       1  UNL1        0.0524
     81 H           8.7824    5.0341    0.0000 H       1  UNL1        0.0524
     82 H          10.3465    0.4822    0.0000 H       1  UNL1        0.0640
     83 H           9.3656    2.7553    0.0000 H       1  UNL1        0.0618
     84 H          10.6756    1.6722    0.0000 H       1  UNL1        0.0694
     85 H           8.9406    2.9303    0.0000 H       1  UNL1        0.0658
     86 H           4.8600   -4.8248    0.0000 H       1  UNL1        0.0389
     87 H          10.9443    4.4377    0.0000 H       1  UNL1        0.0275
     88 H          11.8211    4.4377    0.0000 H       1  UNL1        0.0275
     89 H          11.8211    3.5609    0.0000 H       1  UNL1        0.0275
     90 H           3.8269   -6.2181    0.0000 H       1  UNL1        0.0237
     91 H           2.9708   -6.0283    0.0000 H       1  UNL1        0.0237
     92 H           3.1606   -5.1723    0.0000 H       1  UNL1        0.0237
     93 H           5.5104   -5.0697    0.0000 H       1  UNL1        0.0237
     94 H           5.7741   -5.9059    0.0000 H       1  UNL1        0.0237
     95 H           4.9378   -6.1696    0.0000 H       1  UNL1        0.0237
     96 H          12.0976    2.8292    0.0000 H       1  UNL1        0.0524
     97 H          12.9446    2.6022    0.0000 H       1  UNL1        0.0524
     98 H          12.7176    1.7553    0.0000 H       1  UNL1        0.0524
     99 H           6.5680    3.3058    0.0000 H       1  UNL1        0.0660
    100 H           7.1880    3.9258    0.0000 H       1  UNL1        0.0660
    101 H           7.8080    3.3058    0.0000 H       1  UNL1        0.0660
@<TRIPOS>BOND
     1     1    38    1
     2     2    16    1
     3     2    17    1
     4    19     3    1
     5     3    29    1
     6     4    20    1
     7     4    28    1
     8    25     5    1
     9     5    68    1
    10    26     6    1
    11     6    36    1
    12     7    27    2
    13     8    28    2
    14     9    29    2
    15    10    42    1
    16    10    50    1
    17    11    41    2
    18    12    44    1
    19    12    51    1
    20    13    25    1
    21    13    28   am
    22    13    67    1
    23    14    27   am
    24    14    32    1
    25    14    33    1
    26    31    15    1
    27    15    41   am
    28    15    78    1
    29    16    17    1
    30    16    19    1
    31    16    21    1
    32    17    18    1
    33    17    52    1
    34    18    20    1
    35    18    22    1
    36    18    53    1
    37    19    24    1
    38    19    54    1
    39    20    23    1
    40    20    55    1
    41    21    56    1
    42    21    57    1
    43    21    58    1
    44    22    59    1
    45    22    60    1
    46    22    61    1
    47    23    25    1
    48    23    62    1
    49    23    63    1
    50    24    27    1
    51    24    64    1
    52    24    65    1
    53    25    26    1
    54    26    30    1
    55    26    66    1
    56    29    31    1
    57    30    35    2
    58    30    69    1
    59    31    34    1
    60    31    70    1
    61    32    37   ar
    62    32    38   ar
    63    33    71    1
    64    33    72    1
    65    33    73    1
    66    34    74    1
    67    34    75    1
    68    34    76    1
    69    35    39    1
    70    35    77    1
    71    36    79    1
    72    36    80    1
    73    36    81    1
    74    37    40   ar
    75    37    82    1
    76    38    44   ar
    77    39    43    2
    78    39    83    1
    79    40    42    1
    80    40    45   ar
    81    41    46    1
    82    42    43    1
    83    42    84    1
    84    43    47    1
    85    44    45   ar
    86    45    85    1
    87    46    48    1
    88    46    49    1
    89    46    86    1
    90    47    87    1
    91    47    88    1
    92    47    89    1
    93    48    90    1
    94    48    91    1
    95    48    92    1
    96    49    93    1
    97    49    94    1
    98    49    95    1
    99    50    96    1
   100    50    97    1
   101    50    98    1
   102    51    99    1
   103    51   100    1
   104    51   101    1
