@<TRIPOS>MOLECULE
IMPHY006220
 15 14 0 0 0
SMALL
GASTEIGER

@<TRIPOS>ATOM
      1 O           5.1350   -0.2500    0.0000 O.3     1  UNL1       -0.4774
      2 O           4.2690    1.2500    0.0000 O.2     1  UNL1       -0.2455
      3 C           3.4030   -0.2500    0.0000 C.2     1  UNL1        0.0292
      4 C           2.5369    0.2500    0.0000 C.2     1  UNL1       -0.0774
      5 C           3.4030   -1.2500    0.0000 C.3     1  UNL1       -0.0333
      6 C           2.5369    1.2500    0.0000 C.3     1  UNL1       -0.0461
      7 C           4.2690    0.2500    0.0000 C.2     1  UNL1        0.3322
      8 H           2.0000   -0.0600    0.0000 H       1  UNL1        0.0574
      9 H           2.7830   -1.2500    0.0000 H       1  UNL1        0.0280
     10 H           3.4030   -1.8700    0.0000 H       1  UNL1        0.0280
     11 H           4.0230   -1.2500    0.0000 H       1  UNL1        0.0280
     12 H           3.1569    1.2500    0.0000 H       1  UNL1        0.0272
     13 H           2.5369    1.8700    0.0000 H       1  UNL1        0.0272
     14 H           1.9169    1.2500    0.0000 H       1  UNL1        0.0272
     15 H           5.6720    0.0600    0.0000 H       1  UNL1        0.2954
@<TRIPOS>BOND
     1     1     7    1
     2     1    15    1
     3     2     7    2
     4     3     4    2
     5     3     5    1
     6     3     7    1
     7     4     6    1
     8     4     8    1
     9     5     9    1
    10     5    10    1
    11     5    11    1
    12     6    12    1
    13     6    13    1
    14     6    14    1
