@<TRIPOS>MOLECULE
IMPHY003039
 65 64 0 0 0
SMALL
GASTEIGER

@<TRIPOS>ATOM
      1 C           9.7942    0.2500    0.0000 C.3     1  UNL1       -0.0439
      2 C          10.6603    0.7500    0.0000 C.3     1  UNL1       -0.0505
      3 C           8.9282    0.7500    0.0000 C.3     1  UNL1       -0.0505
      4 C          11.5263    0.2500    0.0000 C.3     1  UNL1       -0.0528
      5 C           8.0622    0.2500    0.0000 C.3     1  UNL1       -0.0528
      6 C          12.3923    0.7500    0.0000 C.3     1  UNL1       -0.0530
      7 C           7.1962    0.7500    0.0000 C.3     1  UNL1       -0.0530
      8 C          13.2583    0.2500    0.0000 C.3     1  UNL1       -0.0531
      9 C           9.7942   -0.7500    0.0000 C.3     1  UNL1       -0.0624
     10 C           6.3301    0.2500    0.0000 C.3     1  UNL1       -0.0531
     11 C          14.1244    0.7500    0.0000 C.3     1  UNL1       -0.0531
     12 C           5.4641    0.7500    0.0000 C.3     1  UNL1       -0.0531
     13 C          14.9904    0.2500    0.0000 C.3     1  UNL1       -0.0531
     14 C           4.5981    0.2500    0.0000 C.3     1  UNL1       -0.0531
     15 C          15.8564    0.7500    0.0000 C.3     1  UNL1       -0.0531
     16 C           3.7320    0.7500    0.0000 C.3     1  UNL1       -0.0533
     17 C          16.7224    0.2500    0.0000 C.3     1  UNL1       -0.0533
     18 C           2.8660    0.2500    0.0000 C.3     1  UNL1       -0.0559
     19 C          17.5885    0.7500    0.0000 C.3     1  UNL1       -0.0559
     20 C           2.0000    0.7500    0.0000 C.3     1  UNL1       -0.0653
     21 C          18.4545    0.2500    0.0000 C.3     1  UNL1       -0.0653
     22 H           9.2573   -0.0600    0.0000 H       1  UNL1        0.0298
     23 H          11.0588    1.2250    0.0000 H       1  UNL1        0.0268
     24 H          10.2617    1.2250    0.0000 H       1  UNL1        0.0268
     25 H           9.3267    1.2250    0.0000 H       1  UNL1        0.0268
     26 H           8.5297    1.2250    0.0000 H       1  UNL1        0.0268
     27 H          11.1278   -0.2249    0.0000 H       1  UNL1        0.0265
     28 H          11.9248   -0.2249    0.0000 H       1  UNL1        0.0265
     29 H           7.6636   -0.2249    0.0000 H       1  UNL1        0.0265
     30 H           8.4607   -0.2249    0.0000 H       1  UNL1        0.0265
     31 H          12.7908    1.2250    0.0000 H       1  UNL1        0.0265
     32 H          11.9938    1.2250    0.0000 H       1  UNL1        0.0265
     33 H           7.5947    1.2250    0.0000 H       1  UNL1        0.0265
     34 H           6.7976    1.2250    0.0000 H       1  UNL1        0.0265
     35 H          12.8598   -0.2249    0.0000 H       1  UNL1        0.0265
     36 H          13.6569   -0.2249    0.0000 H       1  UNL1        0.0265
     37 H           9.1742   -0.7500    0.0000 H       1  UNL1        0.0232
     38 H           9.7942   -1.3700    0.0000 H       1  UNL1        0.0232
     39 H          10.4142   -0.7500    0.0000 H       1  UNL1        0.0232
     40 H           5.9316   -0.2249    0.0000 H       1  UNL1        0.0265
     41 H           6.7287   -0.2249    0.0000 H       1  UNL1        0.0265
     42 H          14.5229    1.2250    0.0000 H       1  UNL1        0.0265
     43 H          13.7258    1.2250    0.0000 H       1  UNL1        0.0265
     44 H           5.8626    1.2250    0.0000 H       1  UNL1        0.0265
     45 H           5.0656    1.2250    0.0000 H       1  UNL1        0.0265
     46 H          14.5919   -0.2249    0.0000 H       1  UNL1        0.0265
     47 H          15.3889   -0.2249    0.0000 H       1  UNL1        0.0265
     48 H           4.1996   -0.2249    0.0000 H       1  UNL1        0.0265
     49 H           4.9966   -0.2249    0.0000 H       1  UNL1        0.0265
     50 H          16.2549    1.2250    0.0000 H       1  UNL1        0.0265
     51 H          15.4579    1.2250    0.0000 H       1  UNL1        0.0265
     52 H           4.1306    1.2250    0.0000 H       1  UNL1        0.0265
     53 H           3.3335    1.2250    0.0000 H       1  UNL1        0.0265
     54 H          16.3239   -0.2249    0.0000 H       1  UNL1        0.0265
     55 H          17.1210   -0.2249    0.0000 H       1  UNL1        0.0265
     56 H           2.4675   -0.2249    0.0000 H       1  UNL1        0.0263
     57 H           3.2646   -0.2249    0.0000 H       1  UNL1        0.0263
     58 H          17.9870    1.2250    0.0000 H       1  UNL1        0.0263
     59 H          17.1899    1.2250    0.0000 H       1  UNL1        0.0263
     60 H           2.3100    1.2869    0.0000 H       1  UNL1        0.0230
     61 H           1.4631    1.0600    0.0000 H       1  UNL1        0.0230
     62 H           1.6900    0.2131    0.0000 H       1  UNL1        0.0230
     63 H          18.1445   -0.2869    0.0000 H       1  UNL1        0.0230
     64 H          18.9914   -0.0600    0.0000 H       1  UNL1        0.0230
     65 H          18.7645    0.7869    0.0000 H       1  UNL1        0.0230
@<TRIPOS>BOND
     1     1     2    1
     2     1     3    1
     3     1     9    1
     4     1    22    1
     5     2     4    1
     6     2    23    1
     7     2    24    1
     8     3     5    1
     9     3    25    1
    10     3    26    1
    11     4     6    1
    12     4    27    1
    13     4    28    1
    14     5     7    1
    15     5    29    1
    16     5    30    1
    17     6     8    1
    18     6    31    1
    19     6    32    1
    20     7    10    1
    21     7    33    1
    22     7    34    1
    23     8    11    1
    24     8    35    1
    25     8    36    1
    26     9    37    1
    27     9    38    1
    28     9    39    1
    29    10    12    1
    30    10    40    1
    31    10    41    1
    32    11    13    1
    33    11    42    1
    34    11    43    1
    35    12    14    1
    36    12    44    1
    37    12    45    1
    38    13    15    1
    39    13    46    1
    40    13    47    1
    41    14    16    1
    42    14    48    1
    43    14    49    1
    44    15    17    1
    45    15    50    1
    46    15    51    1
    47    16    18    1
    48    16    52    1
    49    16    53    1
    50    17    19    1
    51    17    54    1
    52    17    55    1
    53    18    20    1
    54    18    56    1
    55    18    57    1
    56    19    21    1
    57    19    58    1
    58    19    59    1
    59    20    60    1
    60    20    61    1
    61    20    62    1
    62    21    63    1
    63    21    64    1
    64    21    65    1
