@<TRIPOS>MOLECULE
IMPHY004390
 49 52 0 0 0
SMALL
GASTEIGER

@<TRIPOS>ATOM
      1 O           6.6578   -2.5772    0.0000 O.3     1  UNL1       -0.4646
      2 O           8.3885   -2.6442    0.0000 O.2     1  UNL1       -0.5138
      3 O           5.8505   -1.0447    0.0000 O.2     1  UNL1       -0.2452
      4 N           6.9654    1.8505    0.0000 N.2     1  UNL1       -0.2256
      5 N           4.5124    0.7330    0.0000 N.ar    1  UNL1       -0.3525
      6 C           6.2962    1.1073    0.0000 C.3     1  UNL1        0.1958
      7 C           6.6028    0.1118    0.0000 C.3     1  UNL1        0.0266
      8 C           5.3181    1.3153    0.0000 C.ar    1  UNL1        0.0889
      9 C           7.6200   -0.1126    0.0000 C.3     1  UNL1        0.0305
     10 C           6.6564    2.8016    0.0000 C.3     1  UNL1        0.1497
     11 C           5.0091    2.2663    0.0000 C.ar    1  UNL1       -0.0067
     12 C           5.6782    3.0095    0.0000 C.3     1  UNL1        0.0342
     13 C           8.3170    0.6615    0.0000 C.2     1  UNL1        0.0194
     14 C           7.9875    1.6497    0.0000 C.2     1  UNL1        0.1699
     15 C           4.0150    2.2637    0.0000 C.ar    1  UNL1        0.0035
     16 C           3.7086    1.3180    0.0000 C.ar    1  UNL1        0.0471
     17 C           7.5812   -1.1118    0.0000 C.2     1  UNL1        0.0781
     18 C           9.2959    0.4574    0.0000 C.2     1  UNL1       -0.0777
     19 C           3.3334    3.0432    0.0000 C.ar    1  UNL1       -0.0523
     20 C           2.6994    1.0863    0.0000 C.ar    1  UNL1       -0.0378
     21 C           6.6965   -1.5779    0.0000 C.2     1  UNL1        0.3384
     22 C           8.4272   -1.6450    0.0000 C.2     1  UNL1        0.0914
     23 C           2.3191    2.8349    0.0000 C.ar    1  UNL1       -0.0611
     24 C           2.0000    1.8498    0.0000 C.ar    1  UNL1       -0.0598
     25 C           9.6086   -0.4925    0.0000 C.3     1  UNL1       -0.0461
     26 C           5.7730   -3.0432    0.0000 C.3     1  UNL1        0.0820
     27 H           5.7226    0.4801    0.0000 H       1  UNL1        0.1133
     28 H           5.9878    0.0335    0.0000 H       1  UNL1        0.0343
     29 H           6.5748   -0.5075    0.0000 H       1  UNL1        0.0343
     30 H           8.1944   -0.3459    0.0000 H       1  UNL1        0.0404
     31 H           7.2703    2.8878    0.0000 H       1  UNL1        0.1029
     32 H           6.6780    3.4212    0.0000 H       1  UNL1        0.1029
     33 H           5.9105    3.5843    0.0000 H       1  UNL1        0.0375
     34 H           5.1524    3.3380    0.0000 H       1  UNL1        0.0375
     35 H           8.3970    2.1152    0.0000 H       1  UNL1        0.1374
     36 H           4.5113    0.1130    0.0000 H       1  UNL1        0.1658
     37 H           9.7090    0.9197    0.0000 H       1  UNL1        0.0574
     38 H           3.5313    3.6308    0.0000 H       1  UNL1        0.0624
     39 H           2.5152    0.4943    0.0000 H       1  UNL1        0.0638
     40 H           8.8439   -1.1858    0.0000 H       1  UNL1        0.1026
     41 H           1.9056    3.2969    0.0000 H       1  UNL1        0.0618
     42 H           1.3942    1.7181    0.0000 H       1  UNL1        0.0618
     43 H           9.0197   -0.6863    0.0000 H       1  UNL1        0.0272
     44 H           9.8024   -1.0814    0.0000 H       1  UNL1        0.0272
     45 H          10.1975   -0.2986    0.0000 H       1  UNL1        0.0272
     46 H           8.9130   -2.9748    0.0000 H       1  UNL1        0.2912
     47 H           5.4841   -2.4947    0.0000 H       1  UNL1        0.0661
     48 H           5.2245   -3.3322    0.0000 H       1  UNL1        0.0661
     49 H           6.0620   -3.5918    0.0000 H       1  UNL1        0.0661
@<TRIPOS>UNITY_ATOM_ATTR
4 1
charge 1
@<TRIPOS>BOND
     1     1    21    1
     2     1    26    1
     3     2    22    1
     4     2    46    1
     5     3    21    2
     6     4     6    1
     7     4    10    1
     8     4    14    2
     9     5     8   ar
    10     5    16   ar
    11     5    36    1
    12     6     7    1
    13     6     8    1
    14     6    27    1
    15     7     9    1
    16     7    28    1
    17     7    29    1
    18     8    11   ar
    19     9    13    1
    20     9    17    1
    21     9    30    1
    22    10    12    1
    23    10    31    1
    24    10    32    1
    25    11    12    1
    26    11    15   ar
    27    12    33    1
    28    12    34    1
    29    13    14    1
    30    13    18    2
    31    14    35    1
    32    15    16   ar
    33    15    19   ar
    34    16    20   ar
    35    17    21    1
    36    17    22    2
    37    18    25    1
    38    18    37    1
    39    19    23   ar
    40    19    38    1
    41    20    24   ar
    42    20    39    1
    43    22    40    1
    44    23    24   ar
    45    23    41    1
    46    24    42    1
    47    25    43    1
    48    25    44    1
    49    25    45    1
    50    26    47    1
    51    26    48    1
    52    26    49    1
