@<TRIPOS>MOLECULE
IMPHY014177
 39 40 0 0 0
SMALL
GASTEIGER

@<TRIPOS>ATOM
      1 O           2.6200   -2.3660    0.0000 O.3     1  UNL1       -0.3885
      2 O           3.6200    2.3660    0.0000 O.2     1  UNL1       -0.2876
      3 C           4.4860   -0.1339    0.0000 C.3     1  UNL1        0.0077
      4 C           3.6200   -0.6339    0.0000 C.3     1  UNL1        0.0155
      5 C           5.3799   -0.6686    0.0000 C.3     1  UNL1       -0.0335
      6 C           4.4860    0.8661    0.0000 C.2     1  UNL1        0.0022
      7 C           3.1200   -1.5000    0.0000 C.3     1  UNL1        0.0675
      8 C           6.2860   -0.1548    0.0000 C.3     1  UNL1       -0.0462
      9 C           4.4860   -1.1340    0.0000 C.3     1  UNL1       -0.0546
     10 C           6.2860    0.8869    0.0000 C.3     1  UNL1       -0.0338
     11 C           2.7539   -0.1339    0.0000 C.2     1  UNL1       -0.0738
     12 C           5.3684   -1.6685    0.0000 C.3     1  UNL1       -0.0616
     13 C           5.3799    1.4007    0.0000 C.2     1  UNL1       -0.0766
     14 C           3.6200    1.3660    0.0000 C.2     1  UNL1        0.1821
     15 C           2.7539    0.8661    0.0000 C.2     1  UNL1       -0.0182
     16 C           2.2539   -1.0000    0.0000 C.3     1  UNL1       -0.0358
     17 C           3.9860   -2.0000    0.0000 C.3     1  UNL1       -0.0358
     18 H           2.7989   -0.8540    0.0000 H       1  UNL1        0.0379
     19 H           5.9138   -0.9838    0.0000 H       1  UNL1        0.0307
     20 H           6.4950   -0.7385    0.0000 H       1  UNL1        0.0271
     21 H           6.8968   -0.0487    0.0000 H       1  UNL1        0.0271
     22 H           3.8660   -1.1340    0.0000 H       1  UNL1        0.0239
     23 H           4.4860   -1.7540    0.0000 H       1  UNL1        0.0239
     24 H           5.1060   -1.1340    0.0000 H       1  UNL1        0.0239
     25 H           6.8968    0.7808    0.0000 H       1  UNL1        0.0308
     26 H           6.4950    1.4706    0.0000 H       1  UNL1        0.0308
     27 H           2.2170   -0.4439    0.0000 H       1  UNL1        0.0577
     28 H           4.7484   -1.6614    0.0000 H       1  UNL1        0.0233
     29 H           5.3612   -2.2885    0.0000 H       1  UNL1        0.0233
     30 H           5.9883   -1.6757    0.0000 H       1  UNL1        0.0233
     31 H           5.3727    2.0207    0.0000 H       1  UNL1        0.0576
     32 H           2.2170    1.1760    0.0000 H       1  UNL1        0.0653
     33 H           2.5639   -0.4630    0.0000 H       1  UNL1        0.0257
     34 H           1.7170   -0.6900    0.0000 H       1  UNL1        0.0257
     35 H           1.9439   -1.5369    0.0000 H       1  UNL1        0.0257
     36 H           3.6760   -2.5369    0.0000 H       1  UNL1        0.0257
     37 H           4.5229   -2.3100    0.0000 H       1  UNL1        0.0257
     38 H           4.2960   -1.4630    0.0000 H       1  UNL1        0.0257
     39 H           2.0000   -2.3660    0.0000 H       1  UNL1        0.2102
@<TRIPOS>BOND
     1     1     7    1
     2     1    39    1
     3     2    14    2
     4     3     4    1
     5     3     5    1
     6     3     6    1
     7     3     9    1
     8     4     7    1
     9     4    11    1
    10     4    18    1
    11     5     8    1
    12     5    12    1
    13     5    19    1
    14     6    13    2
    15     6    14    1
    16     7    16    1
    17     7    17    1
    18     8    10    1
    19     8    20    1
    20     8    21    1
    21     9    22    1
    22     9    23    1
    23     9    24    1
    24    10    13    1
    25    10    25    1
    26    10    26    1
    27    11    15    2
    28    11    27    1
    29    12    28    1
    30    12    29    1
    31    12    30    1
    32    13    31    1
    33    14    15    1
    34    15    32    1
    35    16    33    1
    36    16    34    1
    37    16    35    1
    38    17    36    1
    39    17    37    1
    40    17    38    1
