@<TRIPOS>MOLECULE
IMPHY002084
 57 58 0 0 0
SMALL
GASTEIGER

@<TRIPOS>ATOM
      1 O           7.2537   -1.3003    0.0000 O.3     1  UNL1       -0.4562
      2 O           8.6550   -2.3183    0.0000 O.2     1  UNL1       -0.2505
      3 O           2.9945   -4.8385    0.0000 O.3     1  UNL1       -0.4647
      4 O           3.1756   -3.1160    0.0000 O.2     1  UNL1       -0.2453
      5 O          10.1016    0.7688    0.0000 O.2     1  UNL1       -0.2922
      6 C           6.9682   -4.0174    0.0000 C.3     1  UNL1       -0.0144
      7 C           6.1591   -3.4296    0.0000 C.3     1  UNL1       -0.0028
      8 C           7.0727   -3.0228    0.0000 C.3     1  UNL1        0.0688
      9 C           6.3804   -4.8264    0.0000 C.3     1  UNL1       -0.0585
     10 C           7.9627   -4.1219    0.0000 C.3     1  UNL1       -0.0585
     11 C           5.1646   -3.3250    0.0000 C.2     1  UNL1       -0.0699
     12 C           7.6605   -2.2138    0.0000 C.2     1  UNL1        0.3119
     13 C           4.5768   -4.1340    0.0000 C.2     1  UNL1        0.0299
     14 C           7.8415   -0.4912    0.0000 C.3     1  UNL1        0.1315
     15 C           4.9836   -5.0476    0.0000 C.3     1  UNL1       -0.0332
     16 C           8.8415   -0.4912    0.0000 C.3     1  UNL1        0.0512
     17 C           7.5325    0.4598    0.0000 C.2     1  UNL1       -0.0255
     18 C           3.5823   -4.0295    0.0000 C.2     1  UNL1        0.3343
     19 C           8.3415    1.0476    0.0000 C.2     1  UNL1        0.0013
     20 C           9.1505    0.4598    0.0000 C.2     1  UNL1        0.1634
     21 C           6.5814    0.7688    0.0000 C.3     1  UNL1       -0.0397
     22 C           8.3415    2.0476    0.0000 C.3     1  UNL1       -0.0061
     23 C           9.2075    2.5476    0.0000 C.2     1  UNL1       -0.0835
     24 C           2.0000   -4.7340    0.0000 C.3     1  UNL1        0.0820
     25 C           9.2075    3.5476    0.0000 C.2     1  UNL1       -0.0879
     26 C           8.3415    4.0476    0.0000 C.3     1  UNL1       -0.0376
     27 C           8.3415    5.0476    0.0000 C.3     1  UNL1       -0.0618
     28 H           6.0622   -2.8172    0.0000 H       1  UNL1        0.0357
     29 H           6.6825   -2.5410    0.0000 H       1  UNL1        0.0425
     30 H           5.8788   -4.4619    0.0000 H       1  UNL1        0.0235
     31 H           6.0159   -5.3280    0.0000 H       1  UNL1        0.0235
     32 H           6.8820   -5.1908    0.0000 H       1  UNL1        0.0235
     33 H           7.8979   -4.7385    0.0000 H       1  UNL1        0.0235
     34 H           8.5793   -4.1867    0.0000 H       1  UNL1        0.0235
     35 H           8.0275   -3.5053    0.0000 H       1  UNL1        0.0235
     36 H           4.9124   -2.7586    0.0000 H       1  UNL1        0.0580
     37 H           8.1230   -1.0437    0.0000 H       1  UNL1        0.0786
     38 H           4.4172   -5.2998    0.0000 H       1  UNL1        0.0280
     39 H           5.2357   -5.6140    0.0000 H       1  UNL1        0.0280
     40 H           5.5500   -4.7954    0.0000 H       1  UNL1        0.0280
     41 H           8.7767   -1.1078    0.0000 H       1  UNL1        0.0385
     42 H           9.4480   -0.6202    0.0000 H       1  UNL1        0.0385
     43 H           6.7730    1.3585    0.0000 H       1  UNL1        0.0276
     44 H           5.9918    0.9604    0.0000 H       1  UNL1        0.0276
     45 H           6.3898    0.1792    0.0000 H       1  UNL1        0.0276
     46 H           8.1295    2.6302    0.0000 H       1  UNL1        0.0357
     47 H           7.7309    1.9399    0.0000 H       1  UNL1        0.0357
     48 H           9.7445    2.2376    0.0000 H       1  UNL1        0.0572
     49 H           2.0648   -4.1174    0.0000 H       1  UNL1        0.0661
     50 H           1.3834   -4.6692    0.0000 H       1  UNL1        0.0661
     51 H           1.9352   -5.3506    0.0000 H       1  UNL1        0.0661
     52 H           9.7445    3.8576    0.0000 H       1  UNL1        0.0569
     53 H           7.7309    4.1553    0.0000 H       1  UNL1        0.0305
     54 H           8.1295    3.4650    0.0000 H       1  UNL1        0.0305
     55 H           8.9615    5.0476    0.0000 H       1  UNL1        0.0233
     56 H           8.3415    5.6676    0.0000 H       1  UNL1        0.0233
     57 H           7.7215    5.0476    0.0000 H       1  UNL1        0.0233
@<TRIPOS>BOND
     1     1    12    1
     2    14     1    1
     3     2    12    2
     4     3    18    1
     5     3    24    1
     6     4    18    2
     7     5    20    2
     8     6     7    1
     9     6     8    1
    10     6     9    1
    11     6    10    1
    12     7     8    1
    13     7    11    1
    14     7    28    1
    15     8    12    1
    16     8    29    1
    17     9    30    1
    18     9    31    1
    19     9    32    1
    20    10    33    1
    21    10    34    1
    22    10    35    1
    23    11    13    2
    24    11    36    1
    25    13    15    1
    26    13    18    1
    27    14    16    1
    28    14    17    1
    29    14    37    1
    30    15    38    1
    31    15    39    1
    32    15    40    1
    33    16    20    1
    34    16    41    1
    35    16    42    1
    36    17    19    2
    37    17    21    1
    38    19    20    1
    39    19    22    1
    40    21    43    1
    41    21    44    1
    42    21    45    1
    43    22    23    1
    44    22    46    1
    45    22    47    1
    46    23    25    2
    47    23    48    1
    48    24    49    1
    49    24    50    1
    50    24    51    1
    51    25    26    1
    52    25    52    1
    53    26    27    1
    54    26    53    1
    55    26    54    1
    56    27    55    1
    57    27    56    1
    58    27    57    1
