@<TRIPOS>MOLECULE
IMPHY000463
 32 35 0 0 0
SMALL
GASTEIGER

@<TRIPOS>ATOM
      1 C        2534.4400 2550.2700    0.0000 C.3     1  UNL1        0.0003
      2 C        2534.4400 2510.2700    0.0000 C.3     1  UNL1        0.0037
      3 C        2534.4400 2469.9800    0.0000 C.3     1  UNL1        0.0180
      4 C        2499.9000 2449.8300    0.0000 C.2     1  UNL1       -0.0491
      5 C        2465.3600 2469.9800    0.0000 C.3     1  UNL1        0.0180
      6 C        2465.3600 2510.2700    0.0000 C.3     1  UNL1        0.0040
      7 C        2499.9000 2530.5200    0.0000 C.3     1  UNL1        0.0006
      8 C        2430.8200 2449.8300    0.0000 C.3     1  UNL1        0.0040
      9 C        2430.8200 2489.8300    0.0000 C.3     1  UNL1        0.0003
     10 C        2430.8200 2409.5300    0.0000 C.3     1  UNL1        0.0082
     11 C        2465.3600 2389.3800    0.0000 C.3     1  UNL1        0.0255
     12 C        2499.9000 2409.5300    0.0000 C.2     1  UNL1       -0.0346
     13 C        2396.2800 2389.3800    0.0000 C.3     1  UNL1        0.0440
     14 C        2361.7400 2409.5300    0.0000 C.3     1  UNL1        0.1688
     15 C        2361.7400 2449.8300    0.0000 C.3     1  UNL1        0.0436
     16 C        2396.2800 2469.9800    0.0000 C.3     1  UNL1        0.0040
     17 O        2327.1000 2389.4800    0.0000 O.3     1  UNL1       -0.4523
     18 C        2292.4600 2409.5300    0.0000 C.2     1  UNL1        0.3174
     19 C        2257.7200 2389.4800    0.0000 C.3     1  UNL1        0.1212
     20 O        2292.4600 2449.5300    0.0000 O.2     1  UNL1       -0.2501
     21 C        2603.6200 2469.9800    0.0000 C.3     1  UNL1        0.0040
     22 C        2603.6200 2510.2700    0.0000 C.3     1  UNL1        0.0007
     23 C        2568.9800 2530.5200    0.0000 C.3     1  UNL1        0.0043
     24 C        2568.9800 2570.5200    0.0000 C.3     1  UNL1        0.0217
     25 C        2603.7200 2590.4700    0.0000 C.2     1  UNL1       -0.0310
     26 C        2638.3600 2570.5200    0.0000 C.2     1  UNL1       -0.0310
     27 C        2673.0000 2590.4700    0.0000 C.3     1  UNL1        0.0217
     28 C        2707.6400 2570.5200    0.0000 C.3     1  UNL1        0.0040
     29 C        2742.2800 2590.4700    0.0000 C.3     1  UNL1        0.0003
     30 C        2707.6400 2530.5200    0.0000 C.3     1  UNL1        0.0003
     31 C        2673.0000 2630.4700    0.0000 C.3     1  UNL1        0.0047
     32 C        2534.3400 2590.4700    0.0000 C.3     1  UNL1        0.0047
@<TRIPOS>BOND
     1     2     1    1
     2     2     3    1
     3     2     7    1
     4     2    23    1
     5     3     4    1
     6     3    21    1
     7     4    12    2
     8     5     4    1
     9     5     8    1
    10     5     6    1
    11     7     6    1
    12     8     9    1
    13     8    10    1
    14     8    16    1
    15    10    13    1
    16    11    10    1
    17    12    11    1
    18    13    14    1
    19    14    17    1
    20    15    14    1
    21    16    15    1
    22    17    18    1
    23    18    19    1
    24    18    20    2
    25    21    22    1
    26    23    22    1
    27    23    24    1
    28    24    25    1
    29    24    32    1
    30    25    26    2
    31    27    26    1
    32    27    28    1
    33    27    31    1
    34    28    29    1
    35    28    30    1
