@<TRIPOS>MOLECULE
IMPHY004874
 30 32 0 0 0
SMALL
GASTEIGER

@<TRIPOS>ATOM
      1 BR          9.2619    0.0000    0.0000 Br      1  UNL1       -0.0503
      2 O           4.9889   -1.7552    0.0000 O.2     1  UNL1       -0.2695
      3 O           4.9889    1.7552    0.0000 O.2     1  UNL1       -0.2695
      4 N           5.2619    0.0000    0.0000 N.am    1  UNL1       -0.2029
      5 C           3.7320    0.5000    0.0000 C.2     1  UNL1        0.0234
      6 C           3.7320   -0.5000    0.0000 C.2     1  UNL1        0.0234
      7 C           2.8660    1.0000    0.0000 C.3     1  UNL1       -0.0223
      8 C           2.8660   -1.0000    0.0000 C.3     1  UNL1       -0.0223
      9 C           2.0000    0.5000    0.0000 C.3     1  UNL1       -0.0486
     10 C           2.0000   -0.5000    0.0000 C.3     1  UNL1       -0.0486
     11 C           4.6783    0.8047    0.0000 C.2     1  UNL1        0.2539
     12 C           4.6783   -0.8047    0.0000 C.2     1  UNL1        0.2539
     13 C           6.2619    0.0000    0.0000 C.ar    1  UNL1        0.0446
     14 C           6.7619   -0.8660    0.0000 C.ar    1  UNL1       -0.0388
     15 C           6.7619    0.8660    0.0000 C.ar    1  UNL1       -0.0388
     16 C           7.7619   -0.8660    0.0000 C.ar    1  UNL1       -0.0460
     17 C           7.7619    0.8660    0.0000 C.ar    1  UNL1       -0.0460
     18 C           8.2619    0.0000    0.0000 C.ar    1  UNL1        0.0180
     19 H           3.2646    1.4750    0.0000 H       1  UNL1        0.0315
     20 H           2.4675    1.4750    0.0000 H       1  UNL1        0.0315
     21 H           2.4675   -1.4750    0.0000 H       1  UNL1        0.0315
     22 H           3.2646   -1.4750    0.0000 H       1  UNL1        0.0315
     23 H           1.7880    1.0826    0.0000 H       1  UNL1        0.0269
     24 H           1.3894    0.3923    0.0000 H       1  UNL1        0.0269
     25 H           1.3894   -0.3923    0.0000 H       1  UNL1        0.0269
     26 H           1.7880   -1.0826    0.0000 H       1  UNL1        0.0269
     27 H           6.4519   -1.4030    0.0000 H       1  UNL1        0.0637
     28 H           6.4519    1.4030    0.0000 H       1  UNL1        0.0637
     29 H           8.0719   -1.4030    0.0000 H       1  UNL1        0.0629
     30 H           8.0719    1.4030    0.0000 H       1  UNL1        0.0629
@<TRIPOS>BOND
     1     1    18    1
     2     2    12    2
     3     3    11    2
     4     4    11   am
     5     4    12   am
     6     4    13    1
     7     5     6    2
     8     5     7    1
     9     5    11    1
    10     6     8    1
    11     6    12    1
    12     7     9    1
    13     7    19    1
    14     7    20    1
    15     8    10    1
    16     8    21    1
    17     8    22    1
    18     9    10    1
    19     9    23    1
    20     9    24    1
    21    10    25    1
    22    10    26    1
    23    13    14   ar
    24    13    15   ar
    25    14    16   ar
    26    14    27    1
    27    15    17   ar
    28    15    28    1
    29    16    18   ar
    30    16    29    1
    31    17    18   ar
    32    17    30    1
