@<TRIPOS>MOLECULE
IMPHY014400
 95 100 0 0 0
SMALL
GASTEIGER

@<TRIPOS>ATOM
      1 O           6.0709   -1.7953    0.0000 O.3     1  UNL1       -0.3513
      2 O           8.9369   -1.2953    0.0000 O.3     1  UNL1       -0.3400
      3 O           2.6697    1.9582    0.0000 O.3     1  UNL1       -0.4582
      4 O           4.8225   -1.9639    0.0000 O.2     1  UNL1       -0.2967
      5 O           5.9204    2.4080    0.0000 O.3     1  UNL1       -0.4604
      6 O           7.0709   -3.5273    0.0000 O.3     1  UNL1       -0.4787
      7 O           8.5709   -2.6613    0.0000 O.2     1  UNL1       -0.2480
      8 O           2.7595    3.6669    0.0000 O.2     1  UNL1       -0.2507
      9 O           9.2733    2.0194    0.0000 O.2     1  UNL1       -0.4707
     10 O          10.4369   -0.4293    0.0000 O.3     1  UNL1       -0.3174
     11 O           5.4138    4.0643    0.0000 O.2     1  UNL1       -0.2512
     12 O           9.9369   -3.0273    0.0000 O.3     1  UNL1       -0.3841
     13 O          11.9369   -3.0273    0.0000 O.3     1  UNL1       -0.3863
     14 O          11.9369    0.4368    0.0000 O.3     1  UNL1       -0.3519
     15 O          12.9369   -1.2953    0.0000 O.3     1  UNL1       -0.3841
     16 C           6.5709   -0.9293    0.0000 C.3     1  UNL1        0.1273
     17 C           5.7049   -0.4293    0.0000 C.3     1  UNL1        0.0621
     18 C           5.7049    0.5707    0.0000 C.3     1  UNL1       -0.0170
     19 C           7.4369   -0.4293    0.0000 C.3     1  UNL1        0.0314
     20 C           4.8109    1.1054    0.0000 C.3     1  UNL1        0.0161
     21 C           7.0709   -1.7953    0.0000 C.3     1  UNL1        0.1858
     22 C           6.5709    1.0707    0.0000 C.3     1  UNL1       -0.0479
     23 C           7.4369    0.5707    0.0000 C.3     1  UNL1       -0.0419
     24 C           3.9049    0.5916    0.0000 C.3     1  UNL1        0.0142
     25 C           4.8109   -0.9639    0.0000 C.2     1  UNL1        0.1427
     26 C           3.9049   -0.4501    0.0000 C.3     1  UNL1        0.0135
     27 C           5.3630   -1.3690    0.0000 C.3     1  UNL1       -0.0498
     28 C           8.4369   -0.4293    0.0000 C.3     1  UNL1        0.0977
     29 C           4.9642    2.1155    0.0000 C.3     1  UNL1        0.1191
     30 C           7.9369   -1.2953    0.0000 C.3     1  UNL1       -0.0541
     31 C           2.9594    0.9785    0.0000 C.3     1  UNL1        0.1118
     32 C           5.6808    1.5987    0.0000 C.3     1  UNL1       -0.0555
     33 C           7.5709   -2.6613    0.0000 C.2     1  UNL1        0.3369
     34 C           4.2721    2.8669    0.0000 C.3     1  UNL1        0.0825
     35 C           8.9369    0.4368    0.0000 C.ar    1  UNL1        0.0195
     36 C           2.0000    0.6963    0.0000 C.3     1  UNL1       -0.0248
     37 C           2.5819    0.0525    0.0000 C.3     1  UNL1       -0.0248
     38 C           3.2528    2.7970    0.0000 C.2     1  UNL1        0.3112
     39 C           9.9369   -1.2953    0.0000 C.3     1  UNL1        0.1911
     40 C           9.9314    0.5413    0.0000 C.ar    1  UNL1       -0.0183
     41 C           8.5302    1.3503    0.0000 C.ar    1  UNL1        0.0973
     42 C           6.1452    3.3824    0.0000 C.2     1  UNL1        0.3042
     43 C          10.4369   -2.1613    0.0000 C.3     1  UNL1        0.1343
     44 C          10.1394    1.5194    0.0000 C.ar    1  UNL1        0.0920
     45 C          11.4369   -2.1613    0.0000 C.3     1  UNL1        0.1163
     46 C           7.1015    3.6749    0.0000 C.3     1  UNL1        0.0332
     47 C          11.4369   -0.4293    0.0000 C.3     1  UNL1        0.1901
     48 C          11.9369   -1.2953    0.0000 C.3     1  UNL1        0.1343
     49 C          12.9369    0.4368    0.0000 C.3     1  UNL1        0.0395
     50 H           6.4410    0.1457    0.0000 H       1  UNL1        0.0318
     51 H           6.7609   -2.3322    0.0000 H       1  UNL1        0.0743
     52 H           6.9694    1.5457    0.0000 H       1  UNL1        0.0269
     53 H           6.1724    1.5457    0.0000 H       1  UNL1        0.0269
     54 H           8.0475    0.4631    0.0000 H       1  UNL1        0.0272
     55 H           7.6490    1.1534    0.0000 H       1  UNL1        0.0272
     56 H           3.1991    0.1178    0.0000 H       1  UNL1        0.0350
     57 H           3.2940   -0.3440    0.0000 H       1  UNL1        0.0346
     58 H           3.6958   -1.0338    0.0000 H       1  UNL1        0.0346
     59 H           4.7803   -1.1570    0.0000 H       1  UNL1        0.0240
     60 H           5.1510   -1.9516    0.0000 H       1  UNL1        0.0240
     61 H           5.9456   -1.5810    0.0000 H       1  UNL1        0.0240
     62 H           9.0569   -0.4293    0.0000 H       1  UNL1        0.0655
     63 H           5.1264    2.7138    0.0000 H       1  UNL1        0.0745
     64 H           7.4000   -1.6053    0.0000 H       1  UNL1        0.0237
     65 H           8.2469   -1.8322    0.0000 H       1  UNL1        0.0237
     66 H           8.4739   -0.9853    0.0000 H       1  UNL1        0.0237
     67 H           5.9866    1.0594    0.0000 H       1  UNL1        0.0236
     68 H           6.2201    1.9046    0.0000 H       1  UNL1        0.0236
     69 H           5.3749    2.1380    0.0000 H       1  UNL1        0.0236
     70 H           4.8104    3.1745    0.0000 H       1  UNL1        0.0414
     71 H           4.0926    3.4604    0.0000 H       1  UNL1        0.0414
     72 H           1.8250    1.2911    0.0000 H       1  UNL1        0.0268
     73 H           1.4052    0.5213    0.0000 H       1  UNL1        0.0268
     74 H           2.1750    0.1015    0.0000 H       1  UNL1        0.0268
     75 H           2.0077    0.2865    0.0000 H       1  UNL1        0.0268
     76 H           2.3478   -0.5217    0.0000 H       1  UNL1        0.0268
     77 H           3.1560   -0.1816    0.0000 H       1  UNL1        0.0268
     78 H           9.6269   -1.8322    0.0000 H       1  UNL1        0.0938
     79 H           7.3809   -4.0643    0.0000 H       1  UNL1        0.2951
     80 H          10.3463    0.0805    0.0000 H       1  UNL1        0.0652
     81 H           7.9237    1.4792    0.0000 H       1  UNL1        0.1033
     82 H          10.7469   -2.6982    0.0000 H       1  UNL1        0.0671
     83 H          10.7058    1.7716    0.0000 H       1  UNL1        0.1029
     84 H          11.1269   -2.6982    0.0000 H       1  UNL1        0.0648
     85 H           7.2829    3.0820    0.0000 H       1  UNL1        0.0342
     86 H           7.6944    3.8563    0.0000 H       1  UNL1        0.0342
     87 H           6.9201    4.2678    0.0000 H       1  UNL1        0.0342
     88 H          12.0569   -0.4293    0.0000 H       1  UNL1        0.0938
     89 H          12.2469   -1.8322    0.0000 H       1  UNL1        0.0671
     90 H          10.2469   -3.5643    0.0000 H       1  UNL1        0.2101
     91 H          12.5569   -3.0273    0.0000 H       1  UNL1        0.2100
     92 H          13.2469   -0.7584    0.0000 H       1  UNL1        0.2101
     93 H          12.9369   -0.1832    0.0000 H       1  UNL1        0.0525
     94 H          13.5569    0.4368    0.0000 H       1  UNL1        0.0525
     95 H          12.9369    1.0568    0.0000 H       1  UNL1        0.0525
@<TRIPOS>BOND
     1     1    16    1
     2     1    21    1
     3     2    28    1
     4    39     2    1
     5     3    31    1
     6     3    38    1
     7     4    25    2
     8    29     5    1
     9     5    42    1
    10     6    33    1
    11     6    79    1
    12     7    33    2
    13     8    38    2
    14     9    41   ar
    15     9    44   ar
    16    10    39    1
    17    10    47    1
    18    11    42    2
    19    43    12    1
    20    12    90    1
    21    45    13    1
    22    13    91    1
    23    47    14    1
    24    14    49    1
    25    48    15    1
    26    15    92    1
    27    16    17    1
    28    16    19    1
    29    16    21    1
    30    17    18    1
    31    17    25    1
    32    17    27    1
    33    18    20    1
    34    18    22    1
    35    18    50    1
    36    19    23    1
    37    19    28    1
    38    19    30    1
    39    20    24    1
    40    20    29    1
    41    20    32    1
    42    21    33    1
    43    21    51    1
    44    22    23    1
    45    22    52    1
    46    22    53    1
    47    23    54    1
    48    23    55    1
    49    24    26    1
    50    24    31    1
    51    24    56    1
    52    25    26    1
    53    26    57    1
    54    26    58    1
    55    27    59    1
    56    27    60    1
    57    27    61    1
    58    28    35    1
    59    28    62    1
    60    29    34    1
    61    29    63    1
    62    30    64    1
    63    30    65    1
    64    30    66    1
    65    31    36    1
    66    31    37    1
    67    32    67    1
    68    32    68    1
    69    32    69    1
    70    34    38    1
    71    34    70    1
    72    34    71    1
    73    35    40   ar
    74    35    41   ar
    75    36    72    1
    76    36    73    1
    77    36    74    1
    78    37    75    1
    79    37    76    1
    80    37    77    1
    81    39    43    1
    82    39    78    1
    83    40    44   ar
    84    40    80    1
    85    41    81    1
    86    42    46    1
    87    43    45    1
    88    43    82    1
    89    44    83    1
    90    45    48    1
    91    45    84    1
    92    46    85    1
    93    46    86    1
    94    46    87    1
    95    47    48    1
    96    47    88    1
    97    48    89    1
    98    49    93    1
    99    49    94    1
   100    49    95    1
