@<TRIPOS>MOLECULE
IMPHY002485
 68 73 0 0 0
SMALL
GASTEIGER

@<TRIPOS>ATOM
      1 O           5.4275   -2.1810    0.0000 O.3     1  UNL1       -0.3516
      2 O           8.1221   -2.7226    0.0000 O.3     1  UNL1       -0.4539
      3 O           3.3389    1.4897    0.0000 O.3     1  UNL1       -0.3723
      4 O           4.5896   -2.7087    0.0000 O.3     1  UNL1       -0.3836
      5 O           2.8079   -1.6983    0.0000 O.2     1  UNL1       -0.2942
      6 O           7.2161   -4.2434    0.0000 O.2     1  UNL1       -0.2478
      7 O          10.0429    0.0439    0.0000 O.2     1  UNL1       -0.4706
      8 O           5.7879    3.6065    0.0000 O.3     1  UNL1       -0.4649
      9 O           6.8910    2.2711    0.0000 O.2     1  UNL1       -0.2456
     10 C           6.3380   -1.6741    0.0000 C.3     1  UNL1        0.1244
     11 C           5.4720   -1.1741    0.0000 C.3     1  UNL1        0.0371
     12 C           7.2040   -1.1741    0.0000 C.3     1  UNL1        0.0419
     13 C           5.4720   -0.1741    0.0000 C.3     1  UNL1       -0.0181
     14 C           6.3220   -2.7156    0.0000 C.3     1  UNL1        0.1857
     15 C           4.5780    0.3605    0.0000 C.3     1  UNL1        0.0283
     16 C           6.3380    0.3259    0.0000 C.3     1  UNL1       -0.0479
     17 C           7.2040   -0.1741    0.0000 C.3     1  UNL1       -0.0409
     18 C           4.5780   -1.7088    0.0000 C.3     1  UNL1        0.1217
     19 C           3.6720   -0.1533    0.0000 C.3     1  UNL1        0.0600
     20 C           8.1140   -1.6810    0.0000 C.3     1  UNL1        0.1391
     21 C           6.1221   -2.2999    0.0000 C.3     1  UNL1       -0.0537
     22 C           3.6720   -1.1949    0.0000 C.2     1  UNL1        0.1688
     23 C           8.0701   -0.6741    0.0000 C.3     1  UNL1       -0.0531
     24 C           4.3680    1.3745    0.0000 C.3     1  UNL1        0.0584
     25 C           2.9097    0.5475    0.0000 C.3     1  UNL1        0.0744
     26 C           7.2200   -3.2434    0.0000 C.2     1  UNL1        0.3398
     27 C           5.3490    0.9974    0.0000 C.2     1  UNL1       -0.0679
     28 C           8.9742   -1.1710    0.0000 C.ar    1  UNL1        0.0310
     29 C           2.0000    0.9628    0.0000 C.3     1  UNL1       -0.0354
     30 C           2.2336   -0.1893    0.0000 C.3     1  UNL1       -0.0354
     31 C           5.1830    1.9835    0.0000 C.2     1  UNL1        0.0192
     32 C           9.8924   -1.5671    0.0000 C.ar    1  UNL1       -0.0172
     33 C           9.0672   -0.1753    0.0000 C.ar    1  UNL1        0.0984
     34 C          10.5529   -0.8163    0.0000 C.ar    1  UNL1        0.0921
     35 C           5.9540    2.6204    0.0000 C.2     1  UNL1        0.3314
     36 C           6.5589    4.2434    0.0000 C.3     1  UNL1        0.0820
     37 H           6.2081   -0.5991    0.0000 H       1  UNL1        0.0317
     38 H           5.8886   -3.4468    0.0000 H       1  UNL1        0.0743
     39 H           6.7366    0.8008    0.0000 H       1  UNL1        0.0269
     40 H           5.9395    0.8008    0.0000 H       1  UNL1        0.0269
     41 H           7.8146   -0.2818    0.0000 H       1  UNL1        0.0273
     42 H           7.4161    0.4085    0.0000 H       1  UNL1        0.0273
     43 H           4.0441   -2.0239    0.0000 H       1  UNL1        0.0679
     44 H           2.8937   -0.4950    0.0000 H       1  UNL1        0.0416
     45 H           8.6539   -1.9858    0.0000 H       1  UNL1        0.0793
     46 H           5.5852   -2.6099    0.0000 H       1  UNL1        0.0237
     47 H           6.4322   -2.8368    0.0000 H       1  UNL1        0.0237
     48 H           6.6590   -1.9898    0.0000 H       1  UNL1        0.0237
     49 H           8.3801   -1.2110    0.0000 H       1  UNL1        0.0237
     50 H           8.6070   -0.3641    0.0000 H       1  UNL1        0.0237
     51 H           7.7601   -0.1372    0.0000 H       1  UNL1        0.0237
     52 H           4.9849    1.4358    0.0000 H       1  UNL1        0.0569
     53 H           4.3718    1.9945    0.0000 H       1  UNL1        0.0569
     54 H           5.9300    0.7809    0.0000 H       1  UNL1        0.0581
     55 H           4.0563   -3.0249    0.0000 H       1  UNL1        0.2104
     56 H           1.7767    0.2298    0.0000 H       1  UNL1        0.0257
     57 H           1.8144   -0.6462    0.0000 H       1  UNL1        0.0257
     58 H           2.6904   -0.6085    0.0000 H       1  UNL1        0.0257
     59 H           2.2575    1.5268    0.0000 H       1  UNL1        0.0257
     60 H           1.4360    1.2203    0.0000 H       1  UNL1        0.0257
     61 H           1.7425    0.3988    0.0000 H       1  UNL1        0.0257
     62 H           4.6020    2.2001    0.0000 H       1  UNL1        0.0686
     63 H          10.0283   -2.1720    0.0000 H       1  UNL1        0.0653
     64 H           8.6017    0.2342    0.0000 H       1  UNL1        0.1033
     65 H          11.1702   -0.8740    0.0000 H       1  UNL1        0.1029
     66 H           6.9537    3.7654    0.0000 H       1  UNL1        0.0661
     67 H           7.0369    4.6382    0.0000 H       1  UNL1        0.0661
     68 H           6.1640    4.7214    0.0000 H       1  UNL1        0.0661
@<TRIPOS>BOND
     1    10     1    1
     2     1    14    1
     3     2    20    1
     4     2    26    1
     5     3    24    1
     6     3    25    1
     7    18     4    1
     8     4    55    1
     9     5    22    2
    10     6    26    2
    11     7    33   ar
    12     7    34   ar
    13     8    35    1
    14     8    36    1
    15     9    35    2
    16    10    11    1
    17    10    12    1
    18    10    14    1
    19    11    13    1
    20    11    18    1
    21    11    21    1
    22    12    17    1
    23    12    20    1
    24    12    23    1
    25    13    15    1
    26    13    16    1
    27    13    37    1
    28    14    26    1
    29    14    38    1
    30    15    19    1
    31    15    24    1
    32    15    27    1
    33    16    17    1
    34    16    39    1
    35    16    40    1
    36    17    41    1
    37    17    42    1
    38    18    22    1
    39    18    43    1
    40    19    22    1
    41    19    25    1
    42    19    44    1
    43    20    28    1
    44    20    45    1
    45    21    46    1
    46    21    47    1
    47    21    48    1
    48    23    49    1
    49    23    50    1
    50    23    51    1
    51    24    52    1
    52    24    53    1
    53    25    29    1
    54    25    30    1
    55    27    31    2
    56    27    54    1
    57    28    32   ar
    58    28    33   ar
    59    29    59    1
    60    29    60    1
    61    29    61    1
    62    30    56    1
    63    30    57    1
    64    30    58    1
    65    31    35    1
    66    31    62    1
    67    32    34   ar
    68    32    63    1
    69    33    64    1
    70    34    65    1
    71    36    66    1
    72    36    67    1
    73    36    68    1
