@<TRIPOS>MOLECULE
IMPHY012518
 20 19 0 0 0
SMALL
GASTEIGER

@<TRIPOS>ATOM
      1 O           8.5991   -0.0950    0.0000 O.3     1  UNL1       -0.4795
      2 OXT         7.7331    1.4050    0.0000 O.2     1  UNL1       -0.2492
      3 O           4.2690    1.4050    0.0000 O.2     1  UNL1       -0.2631
      4 O           2.5369    0.4050    0.0000 O.3     1  UNL1       -0.4740
      5 O           3.4030   -1.0950    0.0000 O.2     1  UNL1       -0.2399
      6 N           5.1350   -0.0950    0.0000 N.am    1  UNL1       -0.3040
      7 N           6.8671   -1.0950    0.0000 N.3     1  UNL1       -0.3172
      8 CA          6.8671   -0.0950    0.0000 C.3     1  UNL1        0.1189
      9 C           6.0010    0.4050    0.0000 C.3     1  UNL1        0.0377
     10 C           7.7331    0.4050    0.0000 C.2     1  UNL1        0.3233
     11 C           4.2690    0.4050    0.0000 C.2     1  UNL1        0.3213
     12 C           3.4030   -0.0950    0.0000 C.2     1  UNL1        0.3923
     13 HA          6.3301   -0.4050    0.0000 H       1  UNL1        0.0590
     14 H           6.3996    0.8799    0.0000 H       1  UNL1        0.0483
     15 H           5.6025    0.8799    0.0000 H       1  UNL1        0.0483
     16 H           5.1350   -0.7150    0.0000 H       1  UNL1        0.1493
     17 H1          6.3301   -1.4050    0.0000 H       1  UNL1        0.1190
     18 H2          7.4040   -1.4050    0.0000 H       1  UNL1        0.1190
     19 H           9.1360    0.2150    0.0000 H       1  UNL1        0.2951
     20 H           2.0000    0.0950    0.0000 H       1  UNL1        0.2956
@<TRIPOS>BOND
     1     1    10    1
     2     1    19    1
     3     2    10    2
     4     3    11    2
     5     4    12    1
     6     4    20    1
     7     5    12    2
     8     6     9    1
     9     6    11   am
    10     6    16    1
    11     8     7    1
    12     7    17    1
    13     7    18    1
    14     8     9    1
    15     8    10    1
    16     8    13    1
    17     9    14    1
    18     9    15    1
    19    11    12    1
