@<TRIPOS>MOLECULE
IMPHY000789
 50 51 0 0 0
SMALL
GASTEIGER

@<TRIPOS>ATOM
      1 O           4.2690    4.2500    0.0000 O.3     1  UNL1       -0.4915
      2 O           8.5991   -4.2500    0.0000 O.3     1  UNL1       -0.4915
      3 O           2.5369    3.2500    0.0000 O.3     1  UNL1       -0.5033
      4 O          10.3312   -3.2500    0.0000 O.3     1  UNL1       -0.5033
      5 C           6.0010    0.2500    0.0000 C.3     1  UNL1       -0.0370
      6 C           6.8671   -0.2500    0.0000 C.3     1  UNL1       -0.0370
      7 C           6.0010    1.2500    0.0000 C.3     1  UNL1       -0.0247
      8 C           6.8671   -1.2500    0.0000 C.3     1  UNL1       -0.0247
      9 C           5.1350   -0.2500    0.0000 C.3     1  UNL1       -0.0619
     10 C           7.7331    0.2500    0.0000 C.3     1  UNL1       -0.0619
     11 C           5.1350    1.7500    0.0000 C.ar    1  UNL1       -0.0434
     12 C           7.7331   -1.7500    0.0000 C.ar    1  UNL1       -0.0434
     13 C           5.1350    2.7500    0.0000 C.ar    1  UNL1       -0.0131
     14 C           7.7331   -2.7500    0.0000 C.ar    1  UNL1       -0.0131
     15 C           4.2690    1.2500    0.0000 C.ar    1  UNL1       -0.0549
     16 C           8.5991   -1.2500    0.0000 C.ar    1  UNL1       -0.0549
     17 C           4.2690    3.2500    0.0000 C.ar    1  UNL1        0.1615
     18 C           8.5991   -3.2500    0.0000 C.ar    1  UNL1        0.1615
     19 C           3.4030    1.7500    0.0000 C.ar    1  UNL1       -0.0163
     20 C           9.4651   -1.7500    0.0000 C.ar    1  UNL1       -0.0163
     21 C           3.4030    2.7500    0.0000 C.ar    1  UNL1        0.1585
     22 C           9.4651   -2.7500    0.0000 C.ar    1  UNL1        0.1585
     23 C           5.1350    4.7500    0.0000 C.3     1  UNL1        0.0790
     24 C           7.7331   -4.7500    0.0000 C.3     1  UNL1        0.0790
     25 H           5.4641    0.5600    0.0000 H       1  UNL1        0.0304
     26 H           7.4040   -0.5600    0.0000 H       1  UNL1        0.0304
     27 H           6.6116    1.1423    0.0000 H       1  UNL1        0.0316
     28 H           6.2131    1.8326    0.0000 H       1  UNL1        0.0316
     29 H           6.2565   -1.1423    0.0000 H       1  UNL1        0.0316
     30 H           6.6550   -1.8326    0.0000 H       1  UNL1        0.0316
     31 H           4.8250    0.2869    0.0000 H       1  UNL1        0.0233
     32 H           4.5981   -0.5600    0.0000 H       1  UNL1        0.0233
     33 H           5.4450   -0.7869    0.0000 H       1  UNL1        0.0233
     34 H           8.0431   -0.2869    0.0000 H       1  UNL1        0.0233
     35 H           8.2700    0.5600    0.0000 H       1  UNL1        0.0233
     36 H           7.4231    0.7869    0.0000 H       1  UNL1        0.0233
     37 H           5.6720    3.0600    0.0000 H       1  UNL1        0.0658
     38 H           7.1962   -3.0600    0.0000 H       1  UNL1        0.0658
     39 H           4.2690    0.6300    0.0000 H       1  UNL1        0.0621
     40 H           8.5991   -0.6300    0.0000 H       1  UNL1        0.0621
     41 H           2.8660    1.4400    0.0000 H       1  UNL1        0.0655
     42 H          10.0021   -1.4400    0.0000 H       1  UNL1        0.0655
     43 H           2.0000    2.9400    0.0000 H       1  UNL1        0.2923
     44 H          10.8681   -2.9400    0.0000 H       1  UNL1        0.2923
     45 H           5.4450    4.2131    0.0000 H       1  UNL1        0.0660
     46 H           5.6720    5.0600    0.0000 H       1  UNL1        0.0660
     47 H           4.8250    5.2869    0.0000 H       1  UNL1        0.0660
     48 H           7.4231   -4.2131    0.0000 H       1  UNL1        0.0660
     49 H           7.1962   -5.0600    0.0000 H       1  UNL1        0.0660
     50 H           8.0431   -5.2869    0.0000 H       1  UNL1        0.0660
@<TRIPOS>BOND
     1     1    17    1
     2     1    23    1
     3     2    18    1
     4     2    24    1
     5     3    21    1
     6     3    43    1
     7     4    22    1
     8     4    44    1
     9     5     6    1
    10     5     7    1
    11     5     9    1
    12     5    25    1
    13     6     8    1
    14     6    10    1
    15     6    26    1
    16     7    11    1
    17     7    27    1
    18     7    28    1
    19     8    12    1
    20     8    29    1
    21     8    30    1
    22     9    31    1
    23     9    32    1
    24     9    33    1
    25    10    34    1
    26    10    35    1
    27    10    36    1
    28    11    13   ar
    29    11    15   ar
    30    12    14   ar
    31    12    16   ar
    32    13    17   ar
    33    13    37    1
    34    14    18   ar
    35    14    38    1
    36    15    19   ar
    37    15    39    1
    38    16    20   ar
    39    16    40    1
    40    17    21   ar
    41    18    22   ar
    42    19    21   ar
    43    19    41    1
    44    20    22   ar
    45    20    42    1
    46    23    45    1
    47    23    46    1
    48    23    47    1
    49    24    48    1
    50    24    49    1
    51    24    50    1
