@<TRIPOS>MOLECULE
IMPHY000857
 70 74 0 0 0
SMALL
GASTEIGER

@<TRIPOS>ATOM
      1 O           8.3867    0.9165    0.0000 O.3     1  UNL1       -0.3455
      2 O           7.2181   -1.9492    0.0000 O.3     1  UNL1       -0.4581
      3 O           9.4661    1.9861    0.0000 O.3     1  UNL1       -0.3623
      4 O           8.1001    2.6201    0.0000 O.3     1  UNL1       -0.3862
      5 O          10.7504    1.2050    0.0000 O.3     1  UNL1       -0.3883
      6 O           5.4639    0.1232    0.0000 O.3     1  UNL1       -0.4494
      7 O          12.5852    0.2208    0.0000 O.3     1  UNL1       -0.3852
      8 O           5.4481   -1.9250    0.0000 O.2     1  UNL1       -0.2466
      9 O           4.5806   -1.3667    0.0000 O.2     1  UNL1       -0.2505
     10 C           8.1001   -0.3799    0.0000 C.3     1  UNL1        0.0466
     11 C           8.9661    0.1201    0.0000 C.3     1  UNL1        0.0354
     12 C           9.8759   -0.3679    0.0000 C.3     1  UNL1        0.0117
     13 C           7.2341    0.1201    0.0000 C.3     1  UNL1        0.0234
     14 C           8.9661    1.1201    0.0000 C.3     1  UNL1        0.1981
     15 C           8.1161   -1.4214    0.0000 C.3     1  UNL1        0.1123
     16 C           9.9002   -1.4000    0.0000 C.3     1  UNL1       -0.0084
     17 C           7.9867    0.2237    0.0000 C.3     1  UNL1        0.0609
     18 C           7.2341    1.1201    0.0000 C.3     1  UNL1       -0.0053
     19 C           8.1001    1.6201    0.0000 C.3     1  UNL1        0.1120
     20 C           9.0144   -1.9303    0.0000 C.3     1  UNL1       -0.0079
     21 C          10.7855    0.2056    0.0000 C.3     1  UNL1        0.0909
     22 C           6.3241   -0.3868    0.0000 C.3     1  UNL1        0.2027
     23 C           9.8524    0.6318    0.0000 C.3     1  UNL1       -0.0561
     24 C          10.8358   -1.9302    0.0000 C.2     1  UNL1       -0.0702
     25 C          11.7332   -0.3027    0.0000 C.3     1  UNL1        0.1000
     26 C           6.3680    1.6201    0.0000 C.3     1  UNL1       -0.0595
     27 C           6.3160   -1.4284    0.0000 C.2     1  UNL1        0.3490
     28 C          11.7585   -1.3778    0.0000 C.2     1  UNL1       -0.0542
     29 C          10.8478   -2.9301    0.0000 C.3     1  UNL1       -0.0434
     30 C           4.5921   -0.3667    0.0000 C.2     1  UNL1        0.3107
     31 C           3.7319    0.1432    0.0000 C.3     1  UNL1        0.0534
     32 C           2.8602   -0.3467    0.0000 C.3     1  UNL1       -0.0432
     33 C           3.7435    1.1432    0.0000 C.3     1  UNL1       -0.0523
     34 C           2.0000    0.1633    0.0000 C.3     1  UNL1       -0.0645
     35 H           9.3911   -0.6160    0.0000 H       1  UNL1        0.0367
     36 H           6.4979    0.5451    0.0000 H       1  UNL1        0.0353
     37 H           8.1229   -2.2714    0.0000 H       1  UNL1        0.0740
     38 H           9.9104   -2.2500    0.0000 H       1  UNL1        0.0353
     39 H           7.5595    0.6731    0.0000 H       1  UNL1        0.0568
     40 H           7.4347   -0.0587    0.0000 H       1  UNL1        0.0568
     41 H           7.2341    1.7401    0.0000 H       1  UNL1        0.0329
     42 H           8.6370    1.9301    0.0000 H       1  UNL1        0.0650
     43 H           8.6210   -2.4095    0.0000 H       1  UNL1        0.0307
     44 H           9.4192   -2.4000    0.0000 H       1  UNL1        0.0307
     45 H          11.3119    0.5333    0.0000 H       1  UNL1        0.0628
     46 H           5.7842   -0.6916    0.0000 H       1  UNL1        0.0856
     47 H          10.4722    0.6464    0.0000 H       1  UNL1        0.0236
     48 H           9.8378    1.2516    0.0000 H       1  UNL1        0.0236
     49 H           9.2325    0.6172    0.0000 H       1  UNL1        0.0236
     50 H          12.2779   -0.5989    0.0000 H       1  UNL1        0.0664
     51 H           6.6780    2.1570    0.0000 H       1  UNL1        0.0233
     52 H           5.8311    1.9301    0.0000 H       1  UNL1        0.0233
     53 H           6.0580    1.0831    0.0000 H       1  UNL1        0.0233
     54 H           9.1561    2.5230    0.0000 H       1  UNL1        0.2128
     55 H          12.3015   -1.6772    0.0000 H       1  UNL1        0.0598
     56 H           7.5632    2.9301    0.0000 H       1  UNL1        0.2100
     57 H          11.2762    1.5337    0.0000 H       1  UNL1        0.2099
     58 H          10.2279   -2.9375    0.0000 H       1  UNL1        0.0274
     59 H          10.8553   -3.5500    0.0000 H       1  UNL1        0.0274
     60 H          11.4678   -2.9226    0.0000 H       1  UNL1        0.0274
     61 H          13.1304   -0.0743    0.0000 H       1  UNL1        0.2103
     62 H           4.2724    0.4470    0.0000 H       1  UNL1        0.0410
     63 H           2.4562   -0.8170    0.0000 H       1  UNL1        0.0270
     64 H           3.2532   -0.8262    0.0000 H       1  UNL1        0.0270
     65 H           4.3635    1.1360    0.0000 H       1  UNL1        0.0238
     66 H           3.7507    1.7631    0.0000 H       1  UNL1        0.0238
     67 H           3.1235    1.1504    0.0000 H       1  UNL1        0.0238
     68 H           2.3162    0.6966    0.0000 H       1  UNL1        0.0230
     69 H           1.4667    0.4795    0.0000 H       1  UNL1        0.0230
     70 H           1.6838   -0.3700    0.0000 H       1  UNL1        0.0230
@<TRIPOS>BOND
     1     1    14    1
     2     1    17    1
     3     2    15    1
     4     2    27    1
     5    14     3    1
     6     3    54    1
     7    19     4    1
     8     4    56    1
     9    21     5    1
    10     5    57    1
    11    22     6    1
    12     6    30    1
    13    25     7    1
    14     7    61    1
    15     8    27    2
    16     9    30    2
    17    10    11    1
    18    10    13    1
    19    10    15    1
    20    10    17    1
    21    11    12    1
    22    11    14    1
    23    11    35    1
    24    12    16    1
    25    12    21    1
    26    12    23    1
    27    13    18    1
    28    13    22    1
    29    13    36    1
    30    14    19    1
    31    15    20    1
    32    15    37    1
    33    16    20    1
    34    16    24    1
    35    16    38    1
    36    17    39    1
    37    17    40    1
    38    18    19    1
    39    18    26    1
    40    18    41    1
    41    19    42    1
    42    20    43    1
    43    20    44    1
    44    21    25    1
    45    21    45    1
    46    22    27    1
    47    22    46    1
    48    23    47    1
    49    23    48    1
    50    23    49    1
    51    24    28    2
    52    24    29    1
    53    25    28    1
    54    25    50    1
    55    26    51    1
    56    26    52    1
    57    26    53    1
    58    28    55    1
    59    29    58    1
    60    29    59    1
    61    29    60    1
    62    30    31    1
    63    31    32    1
    64    31    33    1
    65    31    62    1
    66    32    34    1
    67    32    63    1
    68    32    64    1
    69    33    65    1
    70    33    66    1
    71    33    67    1
    72    34    68    1
    73    34    69    1
    74    34    70    1
