@<TRIPOS>MOLECULE
IMPHY016287
 29 28 0 0 0
SMALL
GASTEIGER

@<TRIPOS>ATOM
      1 O           2.0000    0.6900    0.0000 O.2     1  UNL1       -0.2960
      2 C           6.3301    1.1900    0.0000 C.3     1  UNL1       -0.0498
      3 C           5.4641    0.6900    0.0000 C.3     1  UNL1       -0.0341
      4 C           7.1962    0.6900    0.0000 C.3     1  UNL1       -0.0556
      5 C           3.7320   -0.3100    0.0000 C.3     1  UNL1       -0.0252
      6 C           3.7320    0.6900    0.0000 C.2     1  UNL1       -0.0121
      7 C           4.5981    1.1900    0.0000 C.2     1  UNL1       -0.0778
      8 C           4.5981   -0.8100    0.0000 C.3     1  UNL1       -0.0518
      9 C           8.0622    1.1900    0.0000 C.3     1  UNL1       -0.0653
     10 C           4.5981   -1.8100    0.0000 C.3     1  UNL1       -0.0650
     11 C           2.8660    1.1900    0.0000 C.2     1  UNL1        0.1460
     12 H           6.7287    1.6650    0.0000 H       1  UNL1        0.0268
     13 H           5.9316    1.6650    0.0000 H       1  UNL1        0.0268
     14 H           5.0656    0.2151    0.0000 H       1  UNL1        0.0308
     15 H           5.8626    0.2151    0.0000 H       1  UNL1        0.0308
     16 H           6.7976    0.2151    0.0000 H       1  UNL1        0.0263
     17 H           7.5947    0.2151    0.0000 H       1  UNL1        0.0263
     18 H           3.1215   -0.2023    0.0000 H       1  UNL1        0.0314
     19 H           3.5200   -0.8926    0.0000 H       1  UNL1        0.0314
     20 H           4.5981    1.8100    0.0000 H       1  UNL1        0.0576
     21 H           5.2087   -0.9177    0.0000 H       1  UNL1        0.0266
     22 H           4.8101   -0.2274    0.0000 H       1  UNL1        0.0266
     23 H           8.3722    0.6531    0.0000 H       1  UNL1        0.0230
     24 H           8.5991    1.5000    0.0000 H       1  UNL1        0.0230
     25 H           7.7522    1.7269    0.0000 H       1  UNL1        0.0230
     26 H           3.9781   -1.8100    0.0000 H       1  UNL1        0.0230
     27 H           4.5981   -2.4300    0.0000 H       1  UNL1        0.0230
     28 H           5.2181   -1.8100    0.0000 H       1  UNL1        0.0230
     29 H           2.8660    1.8100    0.0000 H       1  UNL1        0.1078
@<TRIPOS>BOND
     1     1    11    2
     2     2     3    1
     3     2     4    1
     4     2    12    1
     5     2    13    1
     6     3     7    1
     7     3    14    1
     8     3    15    1
     9     4     9    1
    10     4    16    1
    11     4    17    1
    12     5     6    1
    13     5     8    1
    14     5    18    1
    15     5    19    1
    16     6     7    2
    17     6    11    1
    18     7    20    1
    19     8    10    1
    20     8    21    1
    21     8    22    1
    22     9    23    1
    23     9    24    1
    24     9    25    1
    25    10    26    1
    26    10    27    1
    27    10    28    1
    28    11    29    1
