@<TRIPOS>MOLECULE
IMPHY017216
 16 15 0 0 0
SMALL
GASTEIGER

@<TRIPOS>ATOM
      1 O           5.4641   -0.2500    0.0000 O.co2   1  UNL1       -0.5495
      2 O           4.5981    1.2500    0.0000 O.co2   1  UNL1       -0.5495
      3 C           3.7320   -0.2500    0.0000 C.3     1  UNL1       -0.0045
      4 C           2.8660    0.2500    0.0000 C.3     1  UNL1       -0.0482
      5 C           3.7320   -1.2500    0.0000 C.3     1  UNL1       -0.0573
      6 C           2.0000   -0.2500    0.0000 C.3     1  UNL1       -0.0647
      7 C           4.5981    0.2500    0.0000 C.2     1  UNL1        0.0446
      8 H           3.7320    0.3700    0.0000 H       1  UNL1        0.0358
      9 H           3.2646    0.7249    0.0000 H       1  UNL1        0.0269
     10 H           2.4675    0.7249    0.0000 H       1  UNL1        0.0269
     11 H           3.1120   -1.2500    0.0000 H       1  UNL1        0.0236
     12 H           3.7320   -1.8700    0.0000 H       1  UNL1        0.0236
     13 H           4.3520   -1.2500    0.0000 H       1  UNL1        0.0236
     14 H           1.6900    0.2869    0.0000 H       1  UNL1        0.0230
     15 H           1.4631   -0.5600    0.0000 H       1  UNL1        0.0230
     16 H           2.3100   -0.7869    0.0000 H       1  UNL1        0.0230
@<TRIPOS>UNITY_ATOM_ATTR
1 1
charge -1
@<TRIPOS>BOND
     1     1     7   ar
     2     2     7   ar
     3     3     4    1
     4     3     5    1
     5     3     7    1
     6     3     8    1
     7     4     6    1
     8     4     9    1
     9     4    10    1
    10     5    11    1
    11     5    12    1
    12     5    13    1
    13     6    14    1
    14     6    15    1
    15     6    16    1
