@<TRIPOS>MOLECULE
IMPHY000531
 31 35 0 0 0
SMALL
GASTEIGER

@<TRIPOS>ATOM
      1 C        2435.4300 2400.4000    0.0000 C.3     1  UNL1        0.1819
      2 O        2400.7900 2380.4500    0.0000 O.3     1  UNL1       -0.2204
      3 C        2445.7600 2439.1100    0.0000 C.3     1  UNL1        0.0307
      4 C        2445.7600 2479.4000    0.0000 C.3     1  UNL1        0.0028
      5 C        2480.3000 2499.5500    0.0000 C.3     1  UNL1        0.0044
      6 C        2480.3000 2459.5500    0.0000 C.3     1  UNL1        0.0003
      7 C        2514.8400 2479.4000    0.0000 C.3     1  UNL1        0.0037
      8 C        2514.8400 2439.1100    0.0000 C.3     1  UNL1        0.0004
      9 C        2480.3000 2418.9600    0.0000 C.3     1  UNL1        0.0025
     10 C        2514.8400 2519.4000    0.0000 C.3     1  UNL1        0.0003
     11 C        2549.3800 2499.5500    0.0000 C.3     1  UNL1        0.0180
     12 C        2549.3800 2539.8500    0.0000 C.2     1  UNL1       -0.0494
     13 C        2514.8400 2560.0000    0.0000 C.2     1  UNL1       -0.0346
     14 C        2480.3000 2539.8500    0.0000 C.3     1  UNL1        0.0254
     15 C        2584.2200 2560.0000    0.0000 C.3     1  UNL1        0.0149
     16 C        2584.2200 2520.0000    0.0000 C.3     1  UNL1        0.0040
     17 C        2619.0600 2540.3500    0.0000 C.3     1  UNL1        0.0034
     18 C        2619.0600 2500.3500    0.0000 C.3     1  UNL1        0.0006
     19 C        2584.2200 2480.0000    0.0000 C.3     1  UNL1        0.0040
     20 C        2653.3000 2560.8900    0.0000 C.3     1  UNL1        0.0003
     21 C        2667.6900 2523.5700    0.0000 C.3     1  UNL1        0.0000
     22 C        2692.6100 2568.5400    0.0000 C.3     1  UNL1        0.0000
     23 C        2652.8000 2601.1900    0.0000 C.3     1  UNL1        0.0000
     24 C        2617.9700 2620.9400    0.0000 C.3     1  UNL1        0.0003
     25 C        2583.7200 2600.3000    0.0000 C.3     1  UNL1        0.0037
     26 C        2411.2200 2499.5500    0.0000 C.3     1  UNL1        0.0001
     27 C        2376.6700 2479.4000    0.0000 C.3     1  UNL1        0.0001
     28 C        2376.6700 2439.1100    0.0000 C.3     1  UNL1        0.0024
     29 C        2342.0300 2419.0600    0.0000 C.3     1  UNL1        0.0001
     30 C        2307.3900 2439.1100    0.0000 C.3     1  UNL1        0.0000
     31 C        2342.0300 2379.0600    0.0000 C.3     1  UNL1        0.0000
@<TRIPOS>BOND
     1     1     2    1
     2     3     1    1
     3     3     4    1
     4     3     9    1
     5     3    28    1
     6     4     5    1
     7     4    26    1
     8     5     6    1
     9     5     7    1
    10     5    14    1
    11     7    10    1
    12     7    11    1
    13     8     7    1
    14     9     8    1
    15    11    12    1
    16    11    19    1
    17    12    15    1
    18    13    12    2
    19    14    13    1
    20    15    16    1
    21    15    17    1
    22    15    25    1
    23    17    20    1
    24    17    18    1
    25    19    18    1
    26    20    21    1
    27    20    22    1
    28    20    23    1
    29    24    23    1
    30    25    24    1
    31    26    27    1
    32    28    27    1
    33    28    29    1
    34    29    30    1
    35    29    31    1
