@<TRIPOS>MOLECULE
IMPHY008587
 55 56 0 0 0
SMALL
GASTEIGER

@<TRIPOS>ATOM
      1 O           8.0901   -0.8069    0.0000 O.2     1  UNL1       -0.4212
      2 O           6.3301    2.2278    0.0000 O.3     1  UNL1       -0.5056
      3 O           4.5981   -0.7723    0.0000 O.3     1  UNL1       -0.5055
      4 O           7.1962   -2.2722    0.0000 O.2     1  UNL1       -0.2918
      5 O           9.8602   -0.7964    0.0000 O.2     1  UNL1       -0.2452
      6 C           7.1962    0.7277    0.0000 C.ar    1  UNL1        0.0633
      7 C           6.3301   -0.7723    0.0000 C.ar    1  UNL1        0.1021
      8 C           7.1962   -0.2723    0.0000 C.ar    1  UNL1        0.1568
      9 C           8.0901    1.2624    0.0000 C.ar    1  UNL1       -0.0264
     10 C           5.4641    0.7277    0.0000 C.ar    1  UNL1        0.0406
     11 C           5.4641   -3.2722    0.0000 C.3     1  UNL1       -0.0397
     12 C           5.4641   -2.2722    0.0000 C.3     1  UNL1        0.0130
     13 C           6.3301    1.2277    0.0000 C.ar    1  UNL1        0.1347
     14 C           5.4641   -0.2723    0.0000 C.ar    1  UNL1        0.1378
     15 C           6.3301   -1.7722    0.0000 C.2     1  UNL1        0.1705
     16 C           8.0785    2.2623    0.0000 C.3     1  UNL1       -0.0269
     17 C           4.5981    1.2277    0.0000 C.3     1  UNL1       -0.0023
     18 C           8.9387    2.7723    0.0000 C.3     1  UNL1       -0.0519
     19 C           8.9962    0.7486    0.0000 C.ar    1  UNL1        0.0269
     20 C           4.5981   -3.7722    0.0000 C.3     1  UNL1       -0.0623
     21 C           6.3301   -3.7722    0.0000 C.3     1  UNL1       -0.0623
     22 C           8.9962   -0.2931    0.0000 C.ar    1  UNL1        0.3375
     23 C           3.7320    0.7277    0.0000 C.2     1  UNL1       -0.0807
     24 C           8.9271    3.7722    0.0000 C.3     1  UNL1       -0.0650
     25 C           2.8660    1.2277    0.0000 C.2     1  UNL1       -0.0793
     26 C           2.0000    0.7277    0.0000 C.3     1  UNL1       -0.0440
     27 C           2.8660    2.2278    0.0000 C.3     1  UNL1       -0.0440
     28 H           5.4641   -3.8922    0.0000 H       1  UNL1        0.0300
     29 H           5.2520   -1.6896    0.0000 H       1  UNL1        0.0348
     30 H           4.8535   -2.3799    0.0000 H       1  UNL1        0.0348
     31 H           7.8598    2.8425    0.0000 H       1  UNL1        0.0313
     32 H           7.4692    2.1476    0.0000 H       1  UNL1        0.0313
     33 H           4.9966    1.7027    0.0000 H       1  UNL1        0.0358
     34 H           4.1996    1.7027    0.0000 H       1  UNL1        0.0358
     35 H           9.1575    2.1922    0.0000 H       1  UNL1        0.0266
     36 H           9.5480    2.8870    0.0000 H       1  UNL1        0.0266
     37 H           9.5319    1.0606    0.0000 H       1  UNL1        0.0692
     38 H           4.2881   -3.2353    0.0000 H       1  UNL1        0.0232
     39 H           4.0611   -4.0822    0.0000 H       1  UNL1        0.0232
     40 H           4.9081   -4.3092    0.0000 H       1  UNL1        0.0232
     41 H           6.0201   -4.3092    0.0000 H       1  UNL1        0.0232
     42 H           6.8671   -4.0822    0.0000 H       1  UNL1        0.0232
     43 H           6.6401   -3.2353    0.0000 H       1  UNL1        0.0232
     44 H           3.7320    0.1077    0.0000 H       1  UNL1        0.0575
     45 H           9.5471    3.7794    0.0000 H       1  UNL1        0.0230
     46 H           8.9200    4.3922    0.0000 H       1  UNL1        0.0230
     47 H           8.3072    3.7651    0.0000 H       1  UNL1        0.0230
     48 H           5.7932    2.5378    0.0000 H       1  UNL1        0.2922
     49 H           4.0611   -0.4623    0.0000 H       1  UNL1        0.2922
     50 H           1.6900    1.2647    0.0000 H       1  UNL1        0.0274
     51 H           1.4631    0.4177    0.0000 H       1  UNL1        0.0274
     52 H           2.3100    0.1908    0.0000 H       1  UNL1        0.0274
     53 H           3.4860    2.2278    0.0000 H       1  UNL1        0.0274
     54 H           2.8660    2.8478    0.0000 H       1  UNL1        0.0274
     55 H           2.2460    2.2278    0.0000 H       1  UNL1        0.0274
@<TRIPOS>BOND
     1     1     8   ar
     2     1    22   ar
     3     2    13    1
     4     2    48    1
     5     3    14    1
     6     3    49    1
     7     4    15    2
     8     5    22    2
     9     6     8   ar
    10     6     9   ar
    11     6    13   ar
    12     7     8   ar
    13     7    14   ar
    14     7    15    1
    15     9    16    1
    16     9    19   ar
    17    10    13   ar
    18    10    14   ar
    19    10    17    1
    20    11    12    1
    21    11    20    1
    22    11    21    1
    23    11    28    1
    24    12    15    1
    25    12    29    1
    26    12    30    1
    27    16    18    1
    28    16    31    1
    29    16    32    1
    30    17    23    1
    31    17    33    1
    32    17    34    1
    33    18    24    1
    34    18    35    1
    35    18    36    1
    36    19    22   ar
    37    19    37    1
    38    20    38    1
    39    20    39    1
    40    20    40    1
    41    21    41    1
    42    21    42    1
    43    21    43    1
    44    23    25    2
    45    23    44    1
    46    24    45    1
    47    24    46    1
    48    24    47    1
    49    25    26    1
    50    25    27    1
    51    26    50    1
    52    26    51    1
    53    26    52    1
    54    27    53    1
    55    27    54    1
    56    27    55    1
