@<TRIPOS>MOLECULE
IMPHY013773
 15 14 0 0 0
SMALL
GASTEIGER

@<TRIPOS>ATOM
      1 O           2.5369   -0.8170    0.0000 O.3     1  UNL1       -0.3779
      2 O           5.1350   -0.3170    0.0000 O.3     1  UNL1       -0.4786
      3 O           4.2690    1.1830    0.0000 O.2     1  UNL1       -0.2478
      4 C           3.4030   -0.3170    0.0000 C.3     1  UNL1        0.1563
      5 C           2.9030    0.5490    0.0000 C.3     1  UNL1       -0.0258
      6 C           3.9030   -1.1830    0.0000 C.3     1  UNL1       -0.0258
      7 C           4.2690    0.1830    0.0000 C.2     1  UNL1        0.3362
      8 H           3.4399    0.8590    0.0000 H       1  UNL1        0.0263
      9 H           2.5930    1.0860    0.0000 H       1  UNL1        0.0263
     10 H           2.3660    0.2390    0.0000 H       1  UNL1        0.0263
     11 H           3.3660   -1.4930    0.0000 H       1  UNL1        0.0263
     12 H           4.2130   -1.7200    0.0000 H       1  UNL1        0.0263
     13 H           4.4399   -0.8730    0.0000 H       1  UNL1        0.0263
     14 H           2.0000   -0.5070    0.0000 H       1  UNL1        0.2109
     15 H           5.6720   -0.0070    0.0000 H       1  UNL1        0.2951
@<TRIPOS>BOND
     1     1     4    1
     2     1    14    1
     3     2     7    1
     4     2    15    1
     5     3     7    2
     6     4     5    1
     7     4     6    1
     8     4     7    1
     9     5     8    1
    10     5     9    1
    11     5    10    1
    12     6    11    1
    13     6    12    1
    14     6    13    1
