@<TRIPOS>MOLECULE
IMPHY015973
 39 38 0 0 0
SMALL
GASTEIGER

@<TRIPOS>ATOM
      1 O           2.0000    0.5600    0.0000 O.2     1  UNL1       -0.3010
      2 O          14.1244    0.5600    0.0000 O.2     1  UNL1       -0.3010
      3 C           8.0622    0.0600    0.0000 C.3     1  UNL1       -0.0531
      4 C           7.1962    0.5600    0.0000 C.3     1  UNL1       -0.0531
      5 C           8.9282    0.5600    0.0000 C.3     1  UNL1       -0.0531
      6 C           6.3301    0.0600    0.0000 C.3     1  UNL1       -0.0530
      7 C           9.7942    0.0600    0.0000 C.3     1  UNL1       -0.0530
      8 C           5.4641    0.5600    0.0000 C.3     1  UNL1       -0.0527
      9 C          10.6603    0.5600    0.0000 C.3     1  UNL1       -0.0527
     10 C           4.5981    0.0600    0.0000 C.3     1  UNL1       -0.0466
     11 C          11.5263    0.0600    0.0000 C.3     1  UNL1       -0.0466
     12 C           3.7320    0.5600    0.0000 C.3     1  UNL1        0.0028
     13 C          12.3923    0.5600    0.0000 C.3     1  UNL1        0.0028
     14 C           2.8660    0.0600    0.0000 C.2     1  UNL1        0.1203
     15 C          13.2583    0.0600    0.0000 C.2     1  UNL1        0.1203
     16 H           7.6636   -0.4149    0.0000 H       1  UNL1        0.0265
     17 H           8.4607   -0.4149    0.0000 H       1  UNL1        0.0265
     18 H           7.5947    1.0350    0.0000 H       1  UNL1        0.0265
     19 H           6.7976    1.0350    0.0000 H       1  UNL1        0.0265
     20 H           9.3267    1.0350    0.0000 H       1  UNL1        0.0265
     21 H           8.5297    1.0350    0.0000 H       1  UNL1        0.0265
     22 H           5.9316   -0.4149    0.0000 H       1  UNL1        0.0265
     23 H           6.7287   -0.4149    0.0000 H       1  UNL1        0.0265
     24 H           9.3957   -0.4149    0.0000 H       1  UNL1        0.0265
     25 H          10.1928   -0.4149    0.0000 H       1  UNL1        0.0265
     26 H           5.8626    1.0350    0.0000 H       1  UNL1        0.0265
     27 H           5.0656    1.0350    0.0000 H       1  UNL1        0.0265
     28 H          11.0588    1.0350    0.0000 H       1  UNL1        0.0265
     29 H          10.2617    1.0350    0.0000 H       1  UNL1        0.0265
     30 H           4.1996   -0.4149    0.0000 H       1  UNL1        0.0269
     31 H           4.9966   -0.4149    0.0000 H       1  UNL1        0.0269
     32 H          11.1278   -0.4149    0.0000 H       1  UNL1        0.0269
     33 H          11.9248   -0.4149    0.0000 H       1  UNL1        0.0269
     34 H           4.1306    1.0350    0.0000 H       1  UNL1        0.0339
     35 H           3.3335    1.0350    0.0000 H       1  UNL1        0.0339
     36 H          12.7908    1.0350    0.0000 H       1  UNL1        0.0339
     37 H          11.9938    1.0350    0.0000 H       1  UNL1        0.0339
     38 H           2.8660   -0.5600    0.0000 H       1  UNL1        0.1026
     39 H          13.2583   -0.5600    0.0000 H       1  UNL1        0.1026
@<TRIPOS>BOND
     1     1    14    2
     2     2    15    2
     3     3     4    1
     4     3     5    1
     5     3    16    1
     6     3    17    1
     7     4     6    1
     8     4    18    1
     9     4    19    1
    10     5     7    1
    11     5    20    1
    12     5    21    1
    13     6     8    1
    14     6    22    1
    15     6    23    1
    16     7     9    1
    17     7    24    1
    18     7    25    1
    19     8    10    1
    20     8    26    1
    21     8    27    1
    22     9    11    1
    23     9    28    1
    24     9    29    1
    25    10    12    1
    26    10    30    1
    27    10    31    1
    28    11    13    1
    29    11    32    1
    30    11    33    1
    31    12    14    1
    32    12    34    1
    33    12    35    1
    34    13    15    1
    35    13    36    1
    36    13    37    1
    37    14    38    1
    38    15    39    1
