@<TRIPOS>MOLECULE
IMPHY001371
 123 129 0 0 0
SMALL
GASTEIGER

@<TRIPOS>ATOM
      1 O           6.8671   -1.8322    0.0000 O.3     1  UNL1       -0.3449
      2 O           8.6424    7.5222    0.0000 O.3     1  UNL1       -0.3912
      3 O           5.1350   -1.8322    0.0000 O.3     1  UNL1       -0.3315
      4 O           6.8671   -3.8322    0.0000 O.3     1  UNL1       -0.3378
      5 O           5.1350   -4.8322    0.0000 O.3     1  UNL1       -0.3864
      6 O           3.4030   -3.8322    0.0000 O.3     1  UNL1       -0.3860
      7 O           6.0010   -5.3322    0.0000 O.3     1  UNL1       -0.3405
      8 O           2.5369   -2.3322    0.0000 O.3     1  UNL1       -0.4788
      9 O           3.4030   -0.8323    0.0000 O.2     1  UNL1       -0.2480
     10 O           8.5991   -4.8322    0.0000 O.3     1  UNL1       -0.3841
     11 O           8.5991   -6.8322    0.0000 O.3     1  UNL1       -0.3864
     12 O           6.8671   -7.8322    0.0000 O.3     1  UNL1       -0.3865
     13 O           5.1350   -7.8322    0.0000 O.3     1  UNL1       -0.3924
     14 C           7.7681    2.8680    0.0000 C.3     1  UNL1       -0.0194
     15 C           6.9040    2.3646    0.0000 C.3     1  UNL1       -0.0257
     16 C           6.8920    1.3231    0.0000 C.3     1  UNL1       -0.0250
     17 C           7.7643    3.8680    0.0000 C.3     1  UNL1       -0.0051
     18 C           7.7920    0.7988    0.0000 C.3     1  UNL1       -0.0278
     19 C           8.6801    2.3646    0.0000 C.3     1  UNL1       -0.0463
     20 C           6.8963    4.3646    0.0000 C.2     1  UNL1       -0.0633
     21 C           8.6921    1.3231    0.0000 C.3     1  UNL1       -0.0486
     22 C           7.8046   -0.2861    0.0000 C.3     1  UNL1       -0.0052
     23 C           6.8762    5.4061    0.0000 C.3     1  UNL1       -0.0111
     24 C           7.7722    5.9373    0.0000 C.3     1  UNL1        0.0005
     25 C           8.6723    4.3783    0.0000 C.3     1  UNL1       -0.0428
     26 C           6.0361    2.8613    0.0000 C.3     1  UNL1       -0.0306
     27 C           5.9421    0.7988    0.0000 C.3     1  UNL1       -0.0447
     28 C           8.6763    5.4199    0.0000 C.3     1  UNL1       -0.0439
     29 C           8.7522    3.0454    0.0000 C.3     1  UNL1       -0.0585
     30 C           6.8671   -0.8323    0.0000 C.3     1  UNL1        0.0672
     31 C           6.0322    3.8613    0.0000 C.2     1  UNL1       -0.0836
     32 C           6.0279    1.8264    0.0000 C.3     1  UNL1       -0.0590
     33 C           5.9295   -0.2861    0.0000 C.3     1  UNL1       -0.0255
     34 C           8.7497    3.6981    0.0000 C.3     1  UNL1       -0.0553
     35 C           5.9223    5.9230    0.0000 C.3     1  UNL1       -0.0406
     36 C           7.7764    7.0222    0.0000 C.3     1  UNL1        0.0616
     37 C           5.9014    7.0078    0.0000 C.3     1  UNL1       -0.0320
     38 C           6.8347    7.5611    0.0000 C.3     1  UNL1       -0.0211
     39 C           8.8046   -0.2784    0.0000 C.3     1  UNL1       -0.0572
     40 C           8.3113   -1.1483    0.0000 C.3     1  UNL1       -0.0572
     41 C           8.6324    6.4473    0.0000 C.3     1  UNL1       -0.0567
     42 C           5.3881    7.8660    0.0000 C.3     1  UNL1       -0.0597
     43 C           4.9015    6.9924    0.0000 C.3     1  UNL1       -0.0597
     44 C           6.0010   -2.3322    0.0000 C.3     1  UNL1        0.1892
     45 C           6.0010   -3.3322    0.0000 C.3     1  UNL1        0.1407
     46 C           5.1350   -3.8322    0.0000 C.3     1  UNL1        0.1149
     47 C           4.2690   -2.3322    0.0000 C.3     1  UNL1        0.1859
     48 C           4.2690   -3.3322    0.0000 C.3     1  UNL1        0.1202
     49 C           6.8671   -4.8322    0.0000 C.3     1  UNL1        0.1885
     50 C           3.4030   -1.8322    0.0000 C.2     1  UNL1        0.3367
     51 C           7.7331   -5.3322    0.0000 C.3     1  UNL1        0.1341
     52 C           7.7331   -6.3322    0.0000 C.3     1  UNL1        0.1141
     53 C           6.0010   -6.3322    0.0000 C.3     1  UNL1        0.1130
     54 C           6.8671   -6.8322    0.0000 C.3     1  UNL1        0.1119
     55 C           5.1350   -6.8322    0.0000 C.3     1  UNL1        0.0730
     56 H           7.6385    1.9368    0.0000 H       1  UNL1        0.0315
     57 H           8.5314    0.3795    0.0000 H       1  UNL1        0.0312
     58 H           9.2921    2.2656    0.0000 H       1  UNL1        0.0271
     59 H           8.8824    2.9507    0.0000 H       1  UNL1        0.0271
     60 H           8.9079    0.7418    0.0000 H       1  UNL1        0.0268
     61 H           9.3017    1.4362    0.0000 H       1  UNL1        0.0268
     62 H           6.1502    4.9642    0.0000 H       1  UNL1        0.0352
     63 H           8.8791    3.7938    0.0000 H       1  UNL1        0.0274
     64 H           9.2836    4.4820    0.0000 H       1  UNL1        0.0274
     65 H           5.4251    2.9666    0.0000 H       1  UNL1        0.0310
     66 H           5.8263    2.2779    0.0000 H       1  UNL1        0.0310
     67 H           5.7398    1.3848    0.0000 H       1  UNL1        0.0271
     68 H           5.3300    0.6998    0.0000 H       1  UNL1        0.0271
     69 H           9.2868    5.3115    0.0000 H       1  UNL1        0.0272
     70 H           8.8876    6.0028    0.0000 H       1  UNL1        0.0272
     71 H           8.8623    2.4352    0.0000 H       1  UNL1        0.0235
     72 H           9.3624    3.1554    0.0000 H       1  UNL1        0.0235
     73 H           8.6422    3.6556    0.0000 H       1  UNL1        0.0235
     74 H           7.4046   -1.1412    0.0000 H       1  UNL1        0.0602
     75 H           5.4941    4.1692    0.0000 H       1  UNL1        0.0572
     76 H           6.3400    2.3621    0.0000 H       1  UNL1        0.0235
     77 H           5.4922    2.1385    0.0000 H       1  UNL1        0.0235
     78 H           5.7158    1.2907    0.0000 H       1  UNL1        0.0235
     79 H           5.3199   -0.1730    0.0000 H       1  UNL1        0.0290
     80 H           5.7137   -0.8674    0.0000 H       1  UNL1        0.0290
     81 H           8.6444    3.0871    0.0000 H       1  UNL1        0.0238
     82 H           9.3607    3.5928    0.0000 H       1  UNL1        0.0238
     83 H           8.8550    4.3091    0.0000 H       1  UNL1        0.0238
     84 H           5.3095    6.0173    0.0000 H       1  UNL1        0.0276
     85 H           5.7246    5.3354    0.0000 H       1  UNL1        0.0276
     86 H           8.3128    6.7112    0.0000 H       1  UNL1        0.0599
     87 H           7.2302    8.0386    0.0000 H       1  UNL1        0.0295
     88 H           6.4319    8.0325    0.0000 H       1  UNL1        0.0295
     89 H           8.8094   -0.8984    0.0000 H       1  UNL1        0.0236
     90 H           9.4246   -0.2736    0.0000 H       1  UNL1        0.0236
     91 H           8.7998    0.3416    0.0000 H       1  UNL1        0.0236
     92 H           7.7767   -1.4624    0.0000 H       1  UNL1        0.0236
     93 H           8.6254   -1.6828    0.0000 H       1  UNL1        0.0236
     94 H           8.8458   -0.8342    0.0000 H       1  UNL1        0.0236
     95 H           8.9486    5.9139    0.0000 H       1  UNL1        0.0236
     96 H           9.1657    6.7634    0.0000 H       1  UNL1        0.0236
     97 H           8.3162    6.9806    0.0000 H       1  UNL1        0.0236
     98 H           5.9202    8.1842    0.0000 H       1  UNL1        0.0235
     99 H           5.0699    8.3981    0.0000 H       1  UNL1        0.0235
    100 H           4.8560    7.5478    0.0000 H       1  UNL1        0.0235
    101 H           4.8920    7.6123    0.0000 H       1  UNL1        0.0235
    102 H           4.2816    6.9828    0.0000 H       1  UNL1        0.0235
    103 H           4.9111    6.3725    0.0000 H       1  UNL1        0.0235
    104 H           8.6424    8.1422    0.0000 H       1  UNL1        0.2098
    105 H           6.5380   -2.6423    0.0000 H       1  UNL1        0.0938
    106 H           6.0010   -3.9522    0.0000 H       1  UNL1        0.0675
    107 H           4.5981   -4.1422    0.0000 H       1  UNL1        0.0648
    108 H           4.2690   -1.7122    0.0000 H       1  UNL1        0.0741
    109 H           3.7320   -3.0222    0.0000 H       1  UNL1        0.0652
    110 H           7.4040   -4.5222    0.0000 H       1  UNL1        0.0938
    111 H           4.5981   -5.1422    0.0000 H       1  UNL1        0.2100
    112 H           3.4030   -4.4522    0.0000 H       1  UNL1        0.2100
    113 H           8.2700   -5.6422    0.0000 H       1  UNL1        0.0671
    114 H           7.7331   -6.9522    0.0000 H       1  UNL1        0.0648
    115 H           5.4641   -6.0222    0.0000 H       1  UNL1        0.0647
    116 H           2.0000   -2.0222    0.0000 H       1  UNL1        0.2951
    117 H           6.3301   -7.1422    0.0000 H       1  UNL1        0.0647
    118 H           9.1360   -5.1422    0.0000 H       1  UNL1        0.2101
    119 H           4.9230   -6.2496    0.0000 H       1  UNL1        0.0584
    120 H           4.5244   -6.9399    0.0000 H       1  UNL1        0.0584
    121 H           9.1360   -6.5222    0.0000 H       1  UNL1        0.2100
    122 H           7.4040   -8.1422    0.0000 H       1  UNL1        0.2100
    123 H           5.6720   -8.1422    0.0000 H       1  UNL1        0.2095
@<TRIPOS>BOND
     1    30     1    1
     2    44     1    1
     3    36     2    1
     4     2   104    1
     5     3    44    1
     6     3    47    1
     7    45     4    1
     8    49     4    1
     9    46     5    1
    10     5   111    1
    11    48     6    1
    12     6   112    1
    13     7    49    1
    14     7    53    1
    15     8    50    1
    16     8   116    1
    17     9    50    2
    18    51    10    1
    19    10   118    1
    20    52    11    1
    21    11   121    1
    22    54    12    1
    23    12   122    1
    24    13    55    1
    25    13   123    1
    26    14    15    1
    27    14    17    1
    28    14    19    1
    29    14    29    1
    30    15    16    1
    31    15    26    1
    32    15    56    1
    33    16    18    1
    34    16    27    1
    35    16    32    1
    36    17    20    1
    37    17    25    1
    38    17    34    1
    39    18    21    1
    40    18    22    1
    41    18    57    1
    42    19    21    1
    43    19    58    1
    44    19    59    1
    45    20    23    1
    46    20    31    2
    47    21    60    1
    48    21    61    1
    49    22    30    1
    50    22    39    1
    51    22    40    1
    52    23    24    1
    53    23    35    1
    54    23    62    1
    55    24    28    1
    56    24    36    1
    57    24    41    1
    58    25    28    1
    59    25    63    1
    60    25    64    1
    61    26    31    1
    62    26    65    1
    63    26    66    1
    64    27    33    1
    65    27    67    1
    66    27    68    1
    67    28    69    1
    68    28    70    1
    69    29    71    1
    70    29    72    1
    71    29    73    1
    72    30    33    1
    73    30    74    1
    74    31    75    1
    75    32    76    1
    76    32    77    1
    77    32    78    1
    78    33    79    1
    79    33    80    1
    80    34    81    1
    81    34    82    1
    82    34    83    1
    83    35    37    1
    84    35    84    1
    85    35    85    1
    86    36    38    1
    87    36    86    1
    88    37    38    1
    89    37    42    1
    90    37    43    1
    91    38    87    1
    92    38    88    1
    93    39    89    1
    94    39    90    1
    95    39    91    1
    96    40    92    1
    97    40    93    1
    98    40    94    1
    99    41    95    1
   100    41    96    1
   101    41    97    1
   102    42    98    1
   103    42    99    1
   104    42   100    1
   105    43   101    1
   106    43   102    1
   107    43   103    1
   108    44    45    1
   109    44   105    1
   110    45    46    1
   111    45   106    1
   112    46    48    1
   113    46   107    1
   114    47    48    1
   115    47    50    1
   116    47   108    1
   117    48   109    1
   118    49    51    1
   119    49   110    1
   120    51    52    1
   121    51   113    1
   122    52    54    1
   123    52   114    1
   124    53    54    1
   125    53    55    1
   126    53   115    1
   127    54   117    1
   128    55   119    1
   129    55   120    1
