@<TRIPOS>MOLECULE
IMPHY004774
 35 37 0 0 0
SMALL
GASTEIGER

@<TRIPOS>ATOM
      1 S          11.2644   -1.2704    0.0000 S.O2    1  UNL1        0.2514
      2 O           6.0682   -0.2704    0.0000 O.2     1  UNL1       -0.4544
      3 O          10.3984   -1.7704    0.0000 O.3     1  UNL1       -0.3213
      4 O           4.3198    2.7642    0.0000 O.3     1  UNL1       -0.5058
      5 O           6.0682    2.7296    0.0000 O.2     1  UNL1       -0.2869
      6 O           8.6663   -2.7704    0.0000 O.3     1  UNL1       -0.5032
      7 O           2.5381   -0.2945    0.0000 O.3     1  UNL1       -0.5065
      8 O          12.1304   -0.7704    0.0000 O.3     1  UNL1       -0.2222
      9 O          11.7644   -2.1364    0.0000 O.2     1  UNL1       -0.1077
     10 O          10.7644   -0.4044    0.0000 O.2     1  UNL1       -0.1077
     11 C           5.2022    1.2296    0.0000 C.ar    1  UNL1        0.1055
     12 C           6.9343    0.2296    0.0000 C.ar    1  UNL1        0.1393
     13 C           5.2022    0.2296    0.0000 C.ar    1  UNL1        0.1462
     14 C           7.8003   -0.2704    0.0000 C.ar    1  UNL1        0.0211
     15 C           6.0682    1.7296    0.0000 C.ar    1  UNL1        0.1966
     16 C           6.9343    1.2296    0.0000 C.ar    1  UNL1        0.0288
     17 C           4.3083    1.7643    0.0000 C.ar    1  UNL1        0.1347
     18 C           7.8003   -1.2704    0.0000 C.ar    1  UNL1       -0.0058
     19 C           4.3083   -0.3051    0.0000 C.ar    1  UNL1        0.0231
     20 C           8.6663    0.2296    0.0000 C.ar    1  UNL1       -0.0473
     21 C           8.6663   -1.7704    0.0000 C.ar    1  UNL1        0.1621
     22 C           3.4022    0.2088    0.0000 C.ar    1  UNL1        0.1239
     23 C           3.4022    1.2504    0.0000 C.ar    1  UNL1        0.0223
     24 C           9.5323   -1.2704    0.0000 C.ar    1  UNL1        0.1999
     25 C           9.5323   -0.2704    0.0000 C.ar    1  UNL1       -0.0126
     26 H           7.4712    1.5396    0.0000 H       1  UNL1        0.0693
     27 H           7.2634   -1.5804    0.0000 H       1  UNL1        0.0662
     28 H           4.3154   -0.9250    0.0000 H       1  UNL1        0.0691
     29 H           8.6663    0.8496    0.0000 H       1  UNL1        0.0626
     30 H           2.8665    1.5625    0.0000 H       1  UNL1        0.0691
     31 H          10.0693    0.0396    0.0000 H       1  UNL1        0.0656
     32 H           3.7865    3.0804    0.0000 H       1  UNL1        0.2922
     33 H           8.1294   -3.0804    0.0000 H       1  UNL1        0.2923
     34 H           2.0000    0.0134    0.0000 H       1  UNL1        0.2921
     35 H          12.6674   -1.0804    0.0000 H       1  UNL1        0.2479
@<TRIPOS>BOND
     1     1     3    1
     2     1     8    1
     3     1     9    2
     4     1    10    2
     5     2    12   ar
     6     2    13   ar
     7     3    24    1
     8     4    17    1
     9     4    32    1
    10     5    15    2
    11     6    21    1
    12     6    33    1
    13     7    22    1
    14     7    34    1
    15     8    35    1
    16    11    13   ar
    17    11    15   ar
    18    11    17   ar
    19    12    14    1
    20    12    16   ar
    21    13    19   ar
    22    14    18   ar
    23    14    20   ar
    24    15    16   ar
    25    16    26    1
    26    17    23   ar
    27    18    21   ar
    28    18    27    1
    29    19    22   ar
    30    19    28    1
    31    20    25   ar
    32    20    29    1
    33    21    24   ar
    34    22    23   ar
    35    23    30    1
    36    24    25   ar
    37    25    31    1
