@<TRIPOS>MOLECULE
IMPHY012953
 62 66 0 0 0
SMALL
GASTEIGER

@<TRIPOS>ATOM
      1 O           6.4994    2.7482    0.0000 O.3     1  UNL1       -0.4582
      2 O           5.9277   -2.4573    0.0000 O.3     1  UNL1       -0.4908
      3 O           4.0257   -2.8626    0.0000 O.3     1  UNL1       -0.4914
      4 O           7.9613    3.4066    0.0000 O.2     1  UNL1       -0.2456
      5 O           6.6716   -2.7952    0.0000 O.3     1  UNL1       -0.5062
      6 C           3.8000    1.4355    0.0000 C.3     1  UNL1       -0.0311
      7 C           3.8000    2.4355    0.0000 C.3     1  UNL1       -0.0343
      8 C           4.6660    0.9355    0.0000 C.3     1  UNL1       -0.0087
      9 C           4.6660    2.9355    0.0000 C.3     1  UNL1       -0.0125
     10 C           2.9061    0.9008    0.0000 C.3     1  UNL1       -0.0494
     11 C           2.9061    2.9701    0.0000 C.3     1  UNL1       -0.0498
     12 C           5.5321    1.4355    0.0000 C.3     1  UNL1       -0.0085
     13 C           5.5321    2.4355    0.0000 C.3     1  UNL1        0.1042
     14 C           2.0000    1.4146    0.0000 C.3     1  UNL1       -0.0528
     15 C           2.0000    2.4563    0.0000 C.3     1  UNL1       -0.0528
     16 C           4.8789   -0.0586    0.0000 C.ar    1  UNL1       -0.0323
     17 C           5.5687   -0.8053    0.0000 C.ar    1  UNL1        0.0344
     18 C           3.9524   -0.2920    0.0000 C.ar    1  UNL1       -0.0540
     19 C           5.2628   -1.7104    0.0000 C.ar    1  UNL1        0.1695
     20 C           6.5428   -1.0961    0.0000 C.ar    1  UNL1        0.0280
     21 C           3.6801   -1.2078    0.0000 C.ar    1  UNL1       -0.0160
     22 C           7.4910    2.5241    0.0000 C.2     1  UNL1        0.3322
     23 C           4.3284   -1.9095    0.0000 C.ar    1  UNL1        0.1621
     24 C           7.5291   -0.8497    0.0000 C.ar    1  UNL1       -0.0432
     25 C           7.1178   -1.9003    0.0000 C.ar    1  UNL1        0.1247
     26 C           8.2299    1.8259    0.0000 C.2     1  UNL1        0.0231
     27 C           8.2520   -0.1349    0.0000 C.ar    1  UNL1       -0.0240
     28 C           8.5096    0.8485    0.0000 C.2     1  UNL1       -0.0478
     29 C           8.1062   -1.8758    0.0000 C.ar    1  UNL1       -0.0190
     30 C           8.6405   -1.0440    0.0000 C.ar    1  UNL1       -0.0511
     31 C           5.6133   -3.4066    0.0000 C.3     1  UNL1        0.0790
     32 C           3.0489   -3.0770    0.0000 C.3     1  UNL1        0.0790
     33 H           4.3369    1.7455    0.0000 H       1  UNL1        0.0309
     34 H           3.8000    3.2855    0.0000 H       1  UNL1        0.0305
     35 H           3.9299    0.5105    0.0000 H       1  UNL1        0.0353
     36 H           5.0646    3.4104    0.0000 H       1  UNL1        0.0304
     37 H           4.2675    3.4104    0.0000 H       1  UNL1        0.0304
     38 H           2.5124    0.4218    0.0000 H       1  UNL1        0.0268
     39 H           3.3107    0.4310    0.0000 H       1  UNL1        0.0268
     40 H           3.3107    3.4399    0.0000 H       1  UNL1        0.0268
     41 H           2.5124    3.4492    0.0000 H       1  UNL1        0.0268
     42 H           5.7441    0.8529    0.0000 H       1  UNL1        0.0307
     43 H           6.1426    1.5431    0.0000 H       1  UNL1        0.0307
     44 H           5.6215    3.2808    0.0000 H       1  UNL1        0.0734
     45 H           1.3891    1.5208    0.0000 H       1  UNL1        0.0265
     46 H           1.7909    0.8310    0.0000 H       1  UNL1        0.0265
     47 H           1.7909    3.0400    0.0000 H       1  UNL1        0.0265
     48 H           1.3891    2.3502    0.0000 H       1  UNL1        0.0265
     49 H           3.5234    0.1556    0.0000 H       1  UNL1        0.0622
     50 H           3.0762   -1.3481    0.0000 H       1  UNL1        0.0655
     51 H           7.8330   -1.3901    0.0000 H       1  UNL1        0.0631
     52 H           8.7596    2.1479    0.0000 H       1  UNL1        0.0689
     53 H           9.1296    0.8555    0.0000 H       1  UNL1        0.0626
     54 H           8.4101   -2.4162    0.0000 H       1  UNL1        0.0654
     55 H           9.2584   -1.0958    0.0000 H       1  UNL1        0.0625
     56 H           5.0248   -3.2117    0.0000 H       1  UNL1        0.0660
     57 H           5.4184   -3.9952    0.0000 H       1  UNL1        0.0660
     58 H           6.2019   -3.6015    0.0000 H       1  UNL1        0.0660
     59 H           7.0137   -3.3122    0.0000 H       1  UNL1        0.2922
     60 H           2.9160   -2.4714    0.0000 H       1  UNL1        0.0660
     61 H           2.4434   -3.2099    0.0000 H       1  UNL1        0.0660
     62 H           3.1819   -3.6826    0.0000 H       1  UNL1        0.0660
@<TRIPOS>BOND
     1     1    13    1
     2     1    22    1
     3     2    19    1
     4     2    31    1
     5     3    23    1
     6     3    32    1
     7     4    22    2
     8     5    25    1
     9     5    59    1
    10     6     7    1
    11     6     8    1
    12     6    10    1
    13     6    33    1
    14     7     9    1
    15     7    11    1
    16     7    34    1
    17     8    12    1
    18     8    16    1
    19     8    35    1
    20     9    13    1
    21     9    36    1
    22     9    37    1
    23    10    14    1
    24    10    38    1
    25    10    39    1
    26    11    15    1
    27    11    40    1
    28    11    41    1
    29    12    13    1
    30    12    42    1
    31    12    43    1
    32    13    44    1
    33    14    15    1
    34    14    45    1
    35    14    46    1
    36    15    47    1
    37    15    48    1
    38    16    17   ar
    39    16    18   ar
    40    17    19   ar
    41    17    20    1
    42    18    21   ar
    43    18    49    1
    44    19    23   ar
    45    20    24   ar
    46    20    25   ar
    47    21    23   ar
    48    21    50    1
    49    22    26    1
    50    24    27   ar
    51    24    51    1
    52    25    29   ar
    53    26    28    2
    54    26    52    1
    55    27    28    1
    56    27    30   ar
    57    28    53    1
    58    29    30   ar
    59    29    54    1
    60    30    55    1
    61    31    56    1
    62    31    57    1
    63    31    58    1
    64    32    60    1
    65    32    61    1
    66    32    62    1
