@<TRIPOS>MOLECULE
IMPHY016474
 34 33 0 0 0
SMALL
GASTEIGER

@<TRIPOS>ATOM
      1 O           6.3301   -0.7500    0.0000 O.2     1  UNL1       -0.2974
      2 C           8.0622    0.2500    0.0000 C.3     1  UNL1       -0.0464
      3 C           4.5981    0.2500    0.0000 C.3     1  UNL1       -0.0464
      4 C           7.1962    0.7500    0.0000 C.3     1  UNL1        0.0058
      5 C           5.4641    0.7500    0.0000 C.3     1  UNL1        0.0058
      6 C           8.9282    0.7500    0.0000 C.3     1  UNL1       -0.0529
      7 C           3.7320    0.7500    0.0000 C.3     1  UNL1       -0.0529
      8 C           6.3301    0.2500    0.0000 C.2     1  UNL1        0.1334
      9 C           9.7942    0.2500    0.0000 C.3     1  UNL1       -0.0559
     10 C           2.8660    0.2500    0.0000 C.3     1  UNL1       -0.0559
     11 C          10.6603    0.7500    0.0000 C.3     1  UNL1       -0.0653
     12 C           2.0000    0.7500    0.0000 C.3     1  UNL1       -0.0653
     13 H           7.6636   -0.2249    0.0000 H       1  UNL1        0.0269
     14 H           8.4607   -0.2249    0.0000 H       1  UNL1        0.0269
     15 H           4.1996   -0.2249    0.0000 H       1  UNL1        0.0269
     16 H           4.9966   -0.2249    0.0000 H       1  UNL1        0.0269
     17 H           7.5947    1.2250    0.0000 H       1  UNL1        0.0342
     18 H           6.7976    1.2250    0.0000 H       1  UNL1        0.0342
     19 H           5.8626    1.2250    0.0000 H       1  UNL1        0.0342
     20 H           5.0656    1.2250    0.0000 H       1  UNL1        0.0342
     21 H           9.3267    1.2250    0.0000 H       1  UNL1        0.0265
     22 H           8.5297    1.2250    0.0000 H       1  UNL1        0.0265
     23 H           4.1306    1.2250    0.0000 H       1  UNL1        0.0265
     24 H           3.3335    1.2250    0.0000 H       1  UNL1        0.0265
     25 H           9.3957   -0.2249    0.0000 H       1  UNL1        0.0263
     26 H          10.1928   -0.2249    0.0000 H       1  UNL1        0.0263
     27 H           2.4675   -0.2249    0.0000 H       1  UNL1        0.0263
     28 H           3.2646   -0.2249    0.0000 H       1  UNL1        0.0263
     29 H          10.9703    0.2131    0.0000 H       1  UNL1        0.0230
     30 H          11.1972    1.0600    0.0000 H       1  UNL1        0.0230
     31 H          10.3503    1.2869    0.0000 H       1  UNL1        0.0230
     32 H           2.3100    1.2869    0.0000 H       1  UNL1        0.0230
     33 H           1.4631    1.0600    0.0000 H       1  UNL1        0.0230
     34 H           1.6900    0.2131    0.0000 H       1  UNL1        0.0230
@<TRIPOS>BOND
     1     1     8    2
     2     2     4    1
     3     2     6    1
     4     2    13    1
     5     2    14    1
     6     3     5    1
     7     3     7    1
     8     3    15    1
     9     3    16    1
    10     4     8    1
    11     4    17    1
    12     4    18    1
    13     5     8    1
    14     5    19    1
    15     5    20    1
    16     6     9    1
    17     6    21    1
    18     6    22    1
    19     7    10    1
    20     7    23    1
    21     7    24    1
    22     9    11    1
    23     9    25    1
    24     9    26    1
    25    10    12    1
    26    10    27    1
    27    10    28    1
    28    11    29    1
    29    11    30    1
    30    11    31    1
    31    12    32    1
    32    12    33    1
    33    12    34    1
