@<TRIPOS>MOLECULE
IMPHY004585
 33 36 0 0 0
SMALL
GASTEIGER

@<TRIPOS>ATOM
      1 O           5.6783   -0.7438    0.0000 O.2     1  UNL1       -0.4536
      2 O           7.8223    1.3247    0.0000 O.2     1  UNL1       -0.4213
      3 O           7.0911   -2.1004    0.0000 O.3     1  UNL1       -0.5058
      4 O          10.4619   -1.0195    0.0000 O.3     1  UNL1       -0.4949
      5 O           6.5352    2.4836    0.0000 O.2     1  UNL1       -0.2444
      6 O           2.8182    2.1031    0.0000 O.3     1  UNL1       -0.5033
      7 O           2.1888    0.1604    0.0000 O.3     1  UNL1       -0.5032
      8 C           6.1750    0.7894    0.0000 C.ar    1  UNL1        0.1131
      9 C           6.4840   -0.1616    0.0000 C.ar    1  UNL1        0.1573
     10 C           5.1810    0.7868    0.0000 C.ar    1  UNL1        0.0385
     11 C           7.4622   -0.3695    0.0000 C.ar    1  UNL1        0.1019
     12 C           4.8746   -0.1588    0.0000 C.ar    1  UNL1        0.1402
     13 C           8.1313    0.3736    0.0000 C.ar    1  UNL1        0.1496
     14 C           6.8442    1.5326    0.0000 C.ar    1  UNL1        0.3488
     15 C           7.7688   -1.3650    0.0000 C.ar    1  UNL1        0.1345
     16 C           4.4994    1.5664    0.0000 C.ar    1  UNL1       -0.0050
     17 C           3.8654   -0.3906    0.0000 C.ar    1  UNL1        0.0264
     18 C           9.1534    0.1728    0.0000 C.ar    1  UNL1        0.0234
     19 C           3.4851    1.3580    0.0000 C.ar    1  UNL1        0.1590
     20 C           8.7859   -1.5894    0.0000 C.ar    1  UNL1        0.0225
     21 C           9.4829   -0.8154    0.0000 C.ar    1  UNL1        0.1271
     22 C           3.1660    0.3729    0.0000 C.ar    1  UNL1        0.1618
     23 C          11.1281   -0.2738    0.0000 C.3     1  UNL1        0.0788
     24 H           4.6973    2.1539    0.0000 H       1  UNL1        0.0662
     25 H           3.6812   -0.9826    0.0000 H       1  UNL1        0.0692
     26 H           9.5629    0.6383    0.0000 H       1  UNL1        0.0691
     27 H           8.9753   -2.1798    0.0000 H       1  UNL1        0.0691
     28 H           7.2758   -2.6922    0.0000 H       1  UNL1        0.2922
     29 H           3.0115    2.6922    0.0000 H       1  UNL1        0.2923
     30 H           2.0000   -0.4301    0.0000 H       1  UNL1        0.2923
     31 H          11.5905   -0.6869    0.0000 H       1  UNL1        0.0660
     32 H          11.5412    0.1886    0.0000 H       1  UNL1        0.0660
     33 H          10.6658    0.1393    0.0000 H       1  UNL1        0.0660
@<TRIPOS>BOND
     1     1     9   ar
     2     1    12   ar
     3     2    13   ar
     4     2    14   ar
     5     3    15    1
     6     3    28    1
     7     4    21    1
     8     4    23    1
     9     5    14    2
    10     6    19    1
    11     6    29    1
    12     7    22    1
    13     7    30    1
    14     8     9   ar
    15     8    10   ar
    16     8    14   ar
    17     9    11   ar
    18    10    12   ar
    19    10    16   ar
    20    11    13   ar
    21    11    15   ar
    22    12    17   ar
    23    13    18   ar
    24    15    20   ar
    25    16    19   ar
    26    16    24    1
    27    17    22   ar
    28    17    25    1
    29    18    21   ar
    30    18    26    1
    31    19    22   ar
    32    20    21   ar
    33    20    27    1
    34    23    31    1
    35    23    32    1
    36    23    33    1
