@<TRIPOS>MOLECULE
IMPHY002593
 42 45 0 0 0
SMALL
GASTEIGER

@<TRIPOS>ATOM
      1 O           9.8281   -0.8047    0.0000 O.3     1  UNL1       -0.4853
      2 O          12.4117   -0.0000    0.0000 O.3     1  UNL1       -0.3855
      3 O           6.2036   -0.8047    0.0000 O.2     1  UNL1       -0.4547
      4 O           2.6200   -1.7320    0.0000 O.3     1  UNL1       -0.5066
      5 O           2.6200    1.7320    0.0000 O.3     1  UNL1       -0.5066
      6 C          10.4117   -0.0000    0.0000 C.3     1  UNL1        0.1322
      7 C          11.4117   -0.0000    0.0000 C.3     1  UNL1        0.0974
      8 C           9.8281    0.8047    0.0000 C.3     1  UNL1        0.0157
      9 C           8.8819    0.5000    0.0000 C.ar    1  UNL1       -0.0013
     10 C           8.8819   -0.5000    0.0000 C.ar    1  UNL1        0.1279
     11 C          11.4117   -1.0000    0.0000 C.3     1  UNL1       -0.0328
     12 C          11.4117    1.0000    0.0000 C.3     1  UNL1       -0.0328
     13 C           8.0158    1.0000    0.0000 C.ar    1  UNL1       -0.0442
     14 C           7.1498    0.5000    0.0000 C.ar    1  UNL1        0.0213
     15 C           8.0158   -1.0000    0.0000 C.ar    1  UNL1        0.0233
     16 C           7.1498   -0.5000    0.0000 C.ar    1  UNL1        0.1392
     17 C           6.2036    0.8047    0.0000 C.ar    1  UNL1       -0.0081
     18 C           5.6200   -0.0000    0.0000 C.ar    1  UNL1        0.1365
     19 C           4.6200   -0.0000    0.0000 C.ar    1  UNL1        0.0242
     20 C           4.1200    0.8660    0.0000 C.ar    1  UNL1       -0.0093
     21 C           4.1200   -0.8660    0.0000 C.ar    1  UNL1       -0.0093
     22 C           3.1200   -0.8660    0.0000 C.ar    1  UNL1        0.1210
     23 C           3.1200    0.8660    0.0000 C.ar    1  UNL1        0.1210
     24 C           2.6200   -0.0000    0.0000 C.ar    1  UNL1        0.0213
     25 H          10.6934   -0.5523    0.0000 H       1  UNL1        0.0765
     26 H          10.3655    1.1140    0.0000 H       1  UNL1        0.0351
     27 H           9.5771    1.3716    0.0000 H       1  UNL1        0.0351
     28 H          10.7917   -1.0000    0.0000 H       1  UNL1        0.0258
     29 H          12.0317    1.0000    0.0000 H       1  UNL1        0.0258
     30 H          11.4117    1.6200    0.0000 H       1  UNL1        0.0258
     31 H          10.7917    1.0000    0.0000 H       1  UNL1        0.0258
     32 H          11.4117   -1.6200    0.0000 H       1  UNL1        0.0258
     33 H          12.0317   -1.0000    0.0000 H       1  UNL1        0.0258
     34 H           8.0158    1.6200    0.0000 H       1  UNL1        0.0628
     35 H           8.0158   -1.6200    0.0000 H       1  UNL1        0.0691
     36 H          12.7217   -0.5369    0.0000 H       1  UNL1        0.2103
     37 H           6.0110    1.3940    0.0000 H       1  UNL1        0.0661
     38 H           4.4300    1.4030    0.0000 H       1  UNL1        0.0661
     39 H           4.4300   -1.4030    0.0000 H       1  UNL1        0.0661
     40 H           2.0000   -0.0000    0.0000 H       1  UNL1        0.0691
     41 H           2.0000   -1.7320    0.0000 H       1  UNL1        0.2921
     42 H           2.0000    1.7320    0.0000 H       1  UNL1        0.2921
@<TRIPOS>BOND
     1     1     6    1
     2     1    10    1
     3     2     7    1
     4     2    36    1
     5     3    16   ar
     6     3    18   ar
     7     4    22    1
     8     4    41    1
     9     5    23    1
    10     5    42    1
    11     6     7    1
    12     6     8    1
    13     6    25    1
    14     7    11    1
    15     7    12    1
    16     8     9    1
    17     8    26    1
    18     8    27    1
    19     9    10   ar
    20     9    13   ar
    21    10    15   ar
    22    11    28    1
    23    11    32    1
    24    11    33    1
    25    12    29    1
    26    12    30    1
    27    12    31    1
    28    13    14   ar
    29    13    34    1
    30    14    16   ar
    31    14    17   ar
    32    15    16   ar
    33    15    35    1
    34    17    18   ar
    35    17    37    1
    36    18    19    1
    37    19    20   ar
    38    19    21   ar
    39    20    23   ar
    40    20    38    1
    41    21    22   ar
    42    21    39    1
    43    22    24   ar
    44    23    24   ar
    45    24    40    1
