@<TRIPOS>MOLECULE
IMPHY003312
 31 33 0 0 0
SMALL
GASTEIGER

@<TRIPOS>ATOM
      1 O           6.0682   -1.7327    0.0000 O.3     1  UNL1       -0.4901
      2 O           6.0682    1.2673    0.0000 O.2     1  UNL1       -0.2912
      3 O           2.5381   -1.7568    0.0000 O.3     1  UNL1       -0.5066
      4 O          10.3984    1.7673    0.0000 O.3     1  UNL1       -0.5068
      5 C           6.9343   -0.2327    0.0000 C.3     1  UNL1        0.0812
      6 C           6.9343   -1.2327    0.0000 C.3     1  UNL1        0.1034
      7 C           6.0682    0.2673    0.0000 C.2     1  UNL1        0.1772
      8 C           7.8003    0.2673    0.0000 C.ar    1  UNL1       -0.0334
      9 C           5.2022   -0.2327    0.0000 C.ar    1  UNL1        0.0600
     10 C           5.2022   -1.2327    0.0000 C.ar    1  UNL1        0.1345
     11 C           8.6663   -0.2327    0.0000 C.ar    1  UNL1       -0.0543
     12 C           7.8003    1.2673    0.0000 C.ar    1  UNL1       -0.0543
     13 C           4.3083    0.3020    0.0000 C.ar    1  UNL1       -0.0443
     14 C           4.3083   -1.7673    0.0000 C.ar    1  UNL1        0.0222
     15 C           3.4022   -0.2119    0.0000 C.ar    1  UNL1       -0.0193
     16 C           3.4022   -1.2535    0.0000 C.ar    1  UNL1        0.1204
     17 C           9.5323    0.2673    0.0000 C.ar    1  UNL1       -0.0199
     18 C           8.6663    1.7673    0.0000 C.ar    1  UNL1       -0.0199
     19 C           9.5323    1.2673    0.0000 C.ar    1  UNL1        0.1169
     20 H           6.9343    0.6173    0.0000 H       1  UNL1        0.0463
     21 H           7.1463   -1.8153    0.0000 H       1  UNL1        0.0707
     22 H           7.5449   -1.1250    0.0000 H       1  UNL1        0.0707
     23 H           8.6663   -0.8527    0.0000 H       1  UNL1        0.0622
     24 H           7.2634    1.5773    0.0000 H       1  UNL1        0.0622
     25 H           4.3154    0.9220    0.0000 H       1  UNL1        0.0627
     26 H           4.3154   -2.3873    0.0000 H       1  UNL1        0.0691
     27 H           2.8665    0.1002    0.0000 H       1  UNL1        0.0654
     28 H          10.0693   -0.0427    0.0000 H       1  UNL1        0.0654
     29 H           8.6663    2.3873    0.0000 H       1  UNL1        0.0654
     30 H           2.0000   -1.4489    0.0000 H       1  UNL1        0.2921
     31 H          10.9353    1.4573    0.0000 H       1  UNL1        0.2921
@<TRIPOS>BOND
     1     1     6    1
     2     1    10    1
     3     2     7    2
     4     3    16    1
     5     3    30    1
     6     4    19    1
     7     4    31    1
     8     5     6    1
     9     5     7    1
    10     5     8    1
    11     5    20    1
    12     6    21    1
    13     6    22    1
    14     7     9    1
    15     8    11   ar
    16     8    12   ar
    17     9    10   ar
    18     9    13   ar
    19    10    14   ar
    20    11    17   ar
    21    11    23    1
    22    12    18   ar
    23    12    24    1
    24    13    15   ar
    25    13    25    1
    26    14    16   ar
    27    14    26    1
    28    15    16   ar
    29    15    27    1
    30    17    19   ar
    31    17    28    1
    32    18    19   ar
    33    18    29    1
