@<TRIPOS>MOLECULE
IMPHY000226
 69 73 0 0 0
SMALL
GASTEIGER

@<TRIPOS>ATOM
      1 O           8.0316   -0.4957    0.0000 O.3     1  UNL1       -0.4763
      2 O           9.7636    1.5043    0.0000 O.3     1  UNL1       -0.4534
      3 O           6.2832   -1.5303    0.0000 O.3     1  UNL1       -0.4825
      4 O           6.2832    2.5389    0.0000 O.3     1  UNL1       -0.5063
      5 O           3.6562   -3.1541    0.0000 O.3     1  UNL1       -0.4449
      6 O           4.5014   -0.5199    0.0000 O.3     1  UNL1       -0.5031
      7 O           6.3063   -3.5302    0.0000 O.3     1  UNL1       -0.3843
      8 O          12.3617    0.0043    0.0000 O.3     1  UNL1       -0.5032
      9 O          10.6296   -2.9957    0.0000 O.3     1  UNL1       -0.5032
     10 O           8.8976    3.0043    0.0000 O.2     1  UNL1       -0.2449
     11 O          12.3617   -1.9957    0.0000 O.3     1  UNL1       -0.5009
     12 O           5.2322   -5.2064    0.0000 O.2     1  UNL1       -0.5042
     13 O           3.1095   -5.6833    0.0000 O.2     1  UNL1       -0.4988
     14 O           2.0000   -3.8119    0.0000 O.2     1  UNL1       -0.2414
     15 O          11.4957    5.5043    0.0000 O.3     1  UNL1       -0.5032
     16 O          13.2277    2.5043    0.0000 O.3     1  UNL1       -0.5032
     17 O          13.2277    4.5043    0.0000 O.3     1  UNL1       -0.5009
     18 C           8.8976    1.0043    0.0000 C.3     1  UNL1        0.1483
     19 C           8.8976    0.0043    0.0000 C.3     1  UNL1        0.1625
     20 C           8.0316    1.5043    0.0000 C.3     1  UNL1        0.0205
     21 C           7.1655    1.0043    0.0000 C.ar    1  UNL1        0.0431
     22 C           7.1655    0.0043    0.0000 C.ar    1  UNL1        0.1734
     23 C           9.7636   -0.4957    0.0000 C.ar    1  UNL1        0.0034
     24 C           6.2716   -0.5304    0.0000 C.ar    1  UNL1        0.2042
     25 C           6.2716    1.5389    0.0000 C.ar    1  UNL1        0.1273
     26 C           5.3655   -0.0165    0.0000 C.ar    1  UNL1        0.1657
     27 C           5.3655    1.0251    0.0000 C.ar    1  UNL1        0.0255
     28 C           9.7636   -1.4957    0.0000 C.ar    1  UNL1       -0.0095
     29 C          10.6296    0.0043    0.0000 C.ar    1  UNL1       -0.0095
     30 C           5.4345   -3.0402    0.0000 C.3     1  UNL1        0.1331
     31 C           5.4230   -2.0403    0.0000 C.3     1  UNL1        0.1197
     32 C           4.5743   -3.5502    0.0000 C.3     1  UNL1        0.1923
     33 C           9.7636    2.5043    0.0000 C.2     1  UNL1        0.3398
     34 C          11.4957   -0.4957    0.0000 C.ar    1  UNL1        0.1623
     35 C          10.6296   -1.9957    0.0000 C.ar    1  UNL1        0.1623
     36 C          11.4957   -1.4957    0.0000 C.ar    1  UNL1        0.2006
     37 C           4.4813   -4.5459    0.0000 C.2     1  UNL1        0.1863
     38 C          10.6296    3.0043    0.0000 C.ar    1  UNL1        0.0661
     39 C           3.5056   -4.7651    0.0000 C.2     1  UNL1        0.2437
     40 C           2.9957   -3.9049    0.0000 C.2     1  UNL1        0.3783
     41 C          11.4957    2.5043    0.0000 C.ar    1  UNL1       -0.0023
     42 C          10.6296    4.0043    0.0000 C.ar    1  UNL1       -0.0023
     43 C          11.4957    4.5043    0.0000 C.ar    1  UNL1        0.1628
     44 C          12.3617    3.0043    0.0000 C.ar    1  UNL1        0.1628
     45 C          12.3617    4.0043    0.0000 C.ar    1  UNL1        0.2006
     46 H           8.8976    1.6243    0.0000 H       1  UNL1        0.0778
     47 H           8.8976   -0.6157    0.0000 H       1  UNL1        0.0822
     48 H           8.4301    1.9792    0.0000 H       1  UNL1        0.0353
     49 H           7.6330    1.9792    0.0000 H       1  UNL1        0.0353
     50 H           4.8298    1.3372    0.0000 H       1  UNL1        0.0692
     51 H           9.2267   -1.8057    0.0000 H       1  UNL1        0.0659
     52 H          10.6296    0.6243    0.0000 H       1  UNL1        0.0659
     53 H           5.9678   -2.7240    0.0000 H       1  UNL1        0.0669
     54 H           5.2042   -1.4602    0.0000 H       1  UNL1        0.0724
     55 H           4.8137   -2.1550    0.0000 H       1  UNL1        0.0724
     56 H           4.5200   -2.7020    0.0000 H       1  UNL1        0.0846
     57 H           5.7498    2.8551    0.0000 H       1  UNL1        0.2921
     58 H           3.9633   -0.2119    0.0000 H       1  UNL1        0.2923
     59 H           6.3134   -4.1502    0.0000 H       1  UNL1        0.2101
     60 H          11.4957    1.8843    0.0000 H       1  UNL1        0.0663
     61 H          10.0927    4.3143    0.0000 H       1  UNL1        0.0663
     62 H          12.8986   -0.3057    0.0000 H       1  UNL1        0.2923
     63 H          10.0927   -3.3057    0.0000 H       1  UNL1        0.2923
     64 H          12.3617   -2.6157    0.0000 H       1  UNL1        0.2924
     65 H           5.1103   -5.8143    0.0000 H       1  UNL1        0.2920
     66 H           2.4937   -5.7552    0.0000 H       1  UNL1        0.2925
     67 H          10.9587    5.8143    0.0000 H       1  UNL1        0.2923
     68 H          13.7646    2.8143    0.0000 H       1  UNL1        0.2923
     69 H          13.2277    5.1243    0.0000 H       1  UNL1        0.2924
@<TRIPOS>BOND
     1     1    19    1
     2     1    22    1
     3    18     2    1
     4     2    33    1
     5     3    24    1
     6     3    31    1
     7     4    25    1
     8     4    57    1
     9     5    32    1
    10     5    40    1
    11     6    26    1
    12     6    58    1
    13    30     7    1
    14     7    59    1
    15     8    34    1
    16     8    62    1
    17     9    35    1
    18     9    63    1
    19    10    33    2
    20    11    36    1
    21    11    64    1
    22    12    37    1
    23    12    65    1
    24    13    39    1
    25    13    66    1
    26    14    40    2
    27    15    43    1
    28    15    67    1
    29    16    44    1
    30    16    68    1
    31    17    45    1
    32    17    69    1
    33    18    19    1
    34    18    20    1
    35    18    46    1
    36    19    23    1
    37    19    47    1
    38    20    21    1
    39    20    48    1
    40    20    49    1
    41    21    22   ar
    42    21    25   ar
    43    22    24   ar
    44    23    28   ar
    45    23    29   ar
    46    24    26   ar
    47    25    27   ar
    48    26    27   ar
    49    27    50    1
    50    28    35   ar
    51    28    51    1
    52    29    34   ar
    53    29    52    1
    54    30    31    1
    55    30    32    1
    56    30    53    1
    57    31    54    1
    58    31    55    1
    59    32    37    1
    60    32    56    1
    61    33    38    1
    62    34    36   ar
    63    35    36   ar
    64    37    39    2
    65    38    41   ar
    66    38    42   ar
    67    39    40    1
    68    41    44   ar
    69    41    60    1
    70    42    43   ar
    71    42    61    1
    72    43    45   ar
    73    44    45   ar
