@<TRIPOS>MOLECULE
IMPHY009267
 55 58 0 0 0
SMALL
GASTEIGER

@<TRIPOS>ATOM
      1 O           5.1350   -1.0950    0.0000 O.3     1  UNL1       -0.3609
      2 O           2.5369   -0.5950    0.0000 O.3     1  UNL1       -0.3862
      3 O           2.5369   -2.5950    0.0000 O.3     1  UNL1       -0.3865
      4 O           4.2690   -3.5950    0.0000 O.3     1  UNL1       -0.3865
      5 O           6.0290    0.3703    0.0000 O.2     1  UNL1       -0.4540
      6 O           6.0010   -3.5950    0.0000 O.3     1  UNL1       -0.3924
      7 O           2.5369    0.4050    0.0000 O.3     1  UNL1       -0.5062
      8 O           4.2690    3.4050    0.0000 O.3     1  UNL1       -0.4942
      9 O           6.0174    3.4396    0.0000 O.2     1  UNL1       -0.2869
     10 O           8.6555   -2.1225    0.0000 O.3     1  UNL1       -0.5033
     11 O          10.3914   -1.1292    0.0000 O.3     1  UNL1       -0.5033
     12 C           3.4030   -1.0950    0.0000 C.3     1  UNL1        0.1139
     13 C           3.4030   -2.0950    0.0000 C.3     1  UNL1        0.1121
     14 C           4.2690   -0.5950    0.0000 C.3     1  UNL1        0.1193
     15 C           4.2690   -2.5950    0.0000 C.3     1  UNL1        0.1117
     16 C           5.1350   -2.0950    0.0000 C.3     1  UNL1        0.1108
     17 C           4.2690    0.4050    0.0000 C.ar    1  UNL1        0.0682
     18 C           6.0010   -2.5950    0.0000 C.3     1  UNL1        0.0729
     19 C           5.1350    0.9050    0.0000 C.ar    1  UNL1        0.1520
     20 C           3.4030    0.9050    0.0000 C.ar    1  UNL1        0.1296
     21 C           5.1350    1.9050    0.0000 C.ar    1  UNL1        0.1061
     22 C           3.4030    1.9050    0.0000 C.ar    1  UNL1        0.0228
     23 C           4.2690    2.4050    0.0000 C.ar    1  UNL1        0.1379
     24 C           6.0290    2.4397    0.0000 C.ar    1  UNL1        0.1966
     25 C           6.9350    0.8842    0.0000 C.ar    1  UNL1        0.1394
     26 C           6.9350    1.9258    0.0000 C.ar    1  UNL1        0.0288
     27 C           7.7991    0.3808    0.0000 C.ar    1  UNL1        0.0211
     28 C           7.7953   -0.6191    0.0000 C.ar    1  UNL1       -0.0059
     29 C           8.6671    0.8775    0.0000 C.ar    1  UNL1       -0.0474
     30 C           3.4030    3.9050    0.0000 C.3     1  UNL1        0.0788
     31 C           8.6594   -1.1225    0.0000 C.ar    1  UNL1        0.1589
     32 C           9.5312    0.3742    0.0000 C.ar    1  UNL1       -0.0159
     33 C           9.5273   -0.6258    0.0000 C.ar    1  UNL1        0.1583
     34 H           3.4030   -0.4750    0.0000 H       1  UNL1        0.0649
     35 H           3.4030   -2.7150    0.0000 H       1  UNL1        0.0647
     36 H           5.0051   -0.1700    0.0000 H       1  UNL1        0.0676
     37 H           4.8059   -2.9050    0.0000 H       1  UNL1        0.0647
     38 H           5.6720   -1.7850    0.0000 H       1  UNL1        0.0646
     39 H           6.6116   -2.7027    0.0000 H       1  UNL1        0.0584
     40 H           6.2131   -2.0124    0.0000 H       1  UNL1        0.0584
     41 H           2.0000   -0.9050    0.0000 H       1  UNL1        0.2100
     42 H           2.5369   -3.2150    0.0000 H       1  UNL1        0.2100
     43 H           3.7320   -3.9050    0.0000 H       1  UNL1        0.2100
     44 H           2.8660    2.2150    0.0000 H       1  UNL1        0.0691
     45 H           6.5380   -3.9050    0.0000 H       1  UNL1        0.2095
     46 H           7.4708    2.2379    0.0000 H       1  UNL1        0.0693
     47 H           2.0000    0.7150    0.0000 H       1  UNL1        0.2922
     48 H           7.2571   -0.9271    0.0000 H       1  UNL1        0.0662
     49 H           8.6694    1.4975    0.0000 H       1  UNL1        0.0626
     50 H           3.7130    4.4419    0.0000 H       1  UNL1        0.0660
     51 H           2.8660    4.2150    0.0000 H       1  UNL1        0.0660
     52 H           3.0930    3.3681    0.0000 H       1  UNL1        0.0660
     53 H          10.0693    0.6821    0.0000 H       1  UNL1        0.0655
     54 H           9.1912   -2.4345    0.0000 H       1  UNL1        0.2923
     55 H          10.9295   -0.8212    0.0000 H       1  UNL1        0.2923
@<TRIPOS>BOND
     1     1    14    1
     2     1    16    1
     3     2    12    1
     4     2    41    1
     5    13     3    1
     6     3    42    1
     7    15     4    1
     8     4    43    1
     9     5    19   ar
    10     5    25   ar
    11     6    18    1
    12     6    45    1
    13     7    20    1
    14     7    47    1
    15     8    23    1
    16     8    30    1
    17     9    24    2
    18    10    31    1
    19    10    54    1
    20    11    33    1
    21    11    55    1
    22    12    13    1
    23    12    14    1
    24    12    34    1
    25    13    15    1
    26    13    35    1
    27    14    17    1
    28    14    36    1
    29    15    16    1
    30    15    37    1
    31    16    18    1
    32    16    38    1
    33    17    19   ar
    34    17    20   ar
    35    18    39    1
    36    18    40    1
    37    19    21   ar
    38    20    22   ar
    39    21    23   ar
    40    21    24   ar
    41    22    23   ar
    42    22    44    1
    43    24    26   ar
    44    25    26   ar
    45    25    27    1
    46    26    46    1
    47    27    28   ar
    48    27    29   ar
    49    28    31   ar
    50    28    48    1
    51    29    32   ar
    52    29    49    1
    53    30    50    1
    54    30    51    1
    55    30    52    1
    56    31    33   ar
    57    32    33   ar
    58    32    53    1
