@<TRIPOS>MOLECULE
IMPHY002487
 99 106 0 0 0
SMALL
GASTEIGER

@<TRIPOS>ATOM
      1 O           6.5749    1.7880    0.0000 O.3     1  UNL1       -0.3151
      2 O           6.9680    0.7741    0.0000 O.3     1  UNL1       -0.3160
      3 O           8.1984    1.0062    0.0000 O.3     1  UNL1       -0.3087
      4 O           4.3002   -0.1356    0.0000 O.3     1  UNL1       -0.4476
      5 O           3.5464    1.5281    0.0000 O.3     1  UNL1       -0.4532
      6 O           4.9616   -1.5750    0.0000 O.3     1  UNL1       -0.4537
      7 O          10.6449   -1.7288    0.0000 O.3     1  UNL1       -0.4525
      8 O           3.4278   -3.1413    0.0000 O.3     1  UNL1       -0.4679
      9 O           2.7100   -1.5651    0.0000 O.2     1  UNL1       -0.2509
     10 O           2.9431    1.2392    0.0000 O.2     1  UNL1       -0.2511
     11 O           4.6448    2.8673    0.0000 O.2     1  UNL1       -0.2453
     12 O           6.5740   -2.2078    0.0000 O.2     1  UNL1       -0.2509
     13 O          11.6135   -0.2020    0.0000 O.2     1  UNL1       -0.2456
     14 O           8.9694   -4.6913    0.0000 O.2     1  UNL1       -0.4706
     15 C           6.1739    0.0312    0.0000 C.3     1  UNL1        0.0375
     16 C           5.9514    1.0062    0.0000 C.3     1  UNL1        0.1307
     17 C           5.1695    0.3587    0.0000 C.3     1  UNL1        0.2192
     18 C           7.0749   -0.4026    0.0000 C.3     1  UNL1        0.1199
     19 C           3.8399    0.0114    0.0000 C.3     1  UNL1        0.0158
     20 C           5.0149   -0.9175    0.0000 C.3     1  UNL1       -0.0111
     21 C           7.9758    0.0312    0.0000 C.3     1  UNL1        0.1672
     22 C           4.4955    1.3581    0.0000 C.3     1  UNL1       -0.0097
     23 C           4.3195    0.8939    0.0000 C.3     1  UNL1        0.1550
     24 C           5.3270   -0.6442    0.0000 C.3     1  UNL1        0.1843
     25 C           7.5749    1.7880    0.0000 C.3     1  UNL1        0.2847
     26 C           6.9810   -1.4400    0.0000 C.3     1  UNL1       -0.0188
     27 C           6.3964   -0.9437    0.0000 C.3     1  UNL1       -0.0537
     28 C           8.8454   -0.5422    0.0000 C.2     1  UNL1       -0.0150
     29 C           3.1068   -0.6687    0.0000 C.3     1  UNL1       -0.0557
     30 C           4.4340   -1.7315    0.0000 C.3     1  UNL1        0.0490
     31 C           8.7756   -1.5815    0.0000 C.3     1  UNL1        0.0337
     32 C           7.8371   -2.0334    0.0000 C.3     1  UNL1       -0.0374
     33 C           8.4758    2.2219    0.0000 C.3     1  UNL1        0.0176
     34 C           9.6673   -2.1996    0.0000 C.3     1  UNL1        0.1403
     35 C           9.8118   -0.0489    0.0000 C.2     1  UNL1        0.0253
     36 C           8.7085   -2.5792    0.0000 C.3     1  UNL1       -0.0520
     37 C           3.5240   -2.1460    0.0000 C.2     1  UNL1        0.3071
     38 C           3.4375    0.3700    0.0000 C.2     1  UNL1        0.3048
     39 C           3.7090    2.5148    0.0000 C.2     1  UNL1        0.3350
     40 C           5.5851   -2.3569    0.0000 C.2     1  UNL1        0.3073
     41 C          10.7176   -0.6462    0.0000 C.2     1  UNL1        0.3326
     42 C           9.5887   -3.1965    0.0000 C.ar    1  UNL1        0.0313
     43 C           2.4375    0.3766    0.0000 C.3     1  UNL1        0.0333
     44 C           5.2198   -3.2877    0.0000 C.3     1  UNL1        0.0421
     45 C           2.9358    3.1490    0.0000 C.2     1  UNL1        0.0293
     46 C          10.3491   -3.8460    0.0000 C.ar    1  UNL1       -0.0172
     47 C           8.7360   -3.7189    0.0000 C.ar    1  UNL1        0.0984
     48 C           2.5178   -3.5558    0.0000 C.3     1  UNL1        0.0817
     49 C           5.8433   -4.0696    0.0000 C.3     1  UNL1       -0.0552
     50 C           2.0000    2.7965    0.0000 C.3     1  UNL1       -0.0333
     51 C           3.0984    4.1356    0.0000 C.2     1  UNL1       -0.0774
     52 C           9.9663   -4.7698    0.0000 C.ar    1  UNL1        0.0921
     53 C           2.3253    4.7698    0.0000 C.3     1  UNL1       -0.0461
     54 H           5.5318   -1.2598    0.0000 H       1  UNL1        0.0319
     55 H           4.6841    1.9487    0.0000 H       1  UNL1        0.0301
     56 H           3.9200    1.5887    0.0000 H       1  UNL1        0.0301
     57 H           4.9325    0.9870    0.0000 H       1  UNL1        0.0783
     58 H           4.9405   -0.1594    0.0000 H       1  UNL1        0.0811
     59 H           6.3822   -1.2793    0.0000 H       1  UNL1        0.0294
     60 H           6.7202   -2.0025    0.0000 H       1  UNL1        0.0294
     61 H           5.7920   -1.0816    0.0000 H       1  UNL1        0.0237
     62 H           6.5344   -1.5481    0.0000 H       1  UNL1        0.0237
     63 H           7.0009   -0.8057    0.0000 H       1  UNL1        0.0237
     64 H           2.6851   -0.2142    0.0000 H       1  UNL1        0.0236
     65 H           2.6523   -1.0904    0.0000 H       1  UNL1        0.0236
     66 H           3.5285   -1.1233    0.0000 H       1  UNL1        0.0236
     67 H           4.4825   -2.3496    0.0000 H       1  UNL1        0.0381
     68 H           4.0397   -1.2530    0.0000 H       1  UNL1        0.0381
     69 H           7.4019   -2.4750    0.0000 H       1  UNL1        0.0276
     70 H           8.1977   -2.5378    0.0000 H       1  UNL1        0.0276
     71 H           8.7448    1.6633    0.0000 H       1  UNL1        0.0307
     72 H           9.0344    2.4909    0.0000 H       1  UNL1        0.0307
     73 H           8.2068    2.7805    0.0000 H       1  UNL1        0.0307
     74 H          10.1789   -2.5498    0.0000 H       1  UNL1        0.0795
     75 H           9.8462    0.5701    0.0000 H       1  UNL1        0.0689
     76 H           8.0899   -2.5377    0.0000 H       1  UNL1        0.0239
     77 H           8.6670   -3.1978    0.0000 H       1  UNL1        0.0239
     78 H           9.3272   -2.6208    0.0000 H       1  UNL1        0.0239
     79 H           2.4415    0.9965    0.0000 H       1  UNL1        0.0342
     80 H           1.8175    0.3806    0.0000 H       1  UNL1        0.0342
     81 H           2.4335   -0.2434    0.0000 H       1  UNL1        0.0342
     82 H           4.6907   -2.9644    0.0000 H       1  UNL1        0.0375
     83 H           4.8095   -3.7526    0.0000 H       1  UNL1        0.0375
     84 H          10.9520   -3.7013    0.0000 H       1  UNL1        0.0653
     85 H           8.1633   -3.4815    0.0000 H       1  UNL1        0.1033
     86 H           2.2608   -2.9916    0.0000 H       1  UNL1        0.0661
     87 H           1.9536   -3.8128    0.0000 H       1  UNL1        0.0661
     88 H           2.7748   -4.1200    0.0000 H       1  UNL1        0.0661
     89 H           5.3585   -4.4561    0.0000 H       1  UNL1        0.0235
     90 H           6.2298   -4.5543    0.0000 H       1  UNL1        0.0235
     91 H           6.3280   -3.6830    0.0000 H       1  UNL1        0.0235
     92 H           1.7814    3.3767    0.0000 H       1  UNL1        0.0280
     93 H           1.4198    2.5779    0.0000 H       1  UNL1        0.0280
     94 H           2.2186    2.2163    0.0000 H       1  UNL1        0.0280
     95 H           3.6787    4.3542    0.0000 H       1  UNL1        0.0574
     96 H          10.2902   -5.2985    0.0000 H       1  UNL1        0.1029
     97 H           2.7185    5.2492    0.0000 H       1  UNL1        0.0272
     98 H           1.8459    5.1630    0.0000 H       1  UNL1        0.0272
     99 H           1.9321    4.2905    0.0000 H       1  UNL1        0.0272
@<TRIPOS>BOND
     1     1    16    1
     2     1    25    1
     3     2    18    1
     4     2    25    1
     5     3    21    1
     6     3    25    1
     7    17     4    1
     8     4    38    1
     9    23     5    1
    10     5    39    1
    11    24     6    1
    12     6    40    1
    13     7    34    1
    14     7    41    1
    15     8    37    1
    16     8    48    1
    17     9    37    2
    18    10    38    2
    19    11    39    2
    20    12    40    2
    21    13    41    2
    22    14    47   ar
    23    14    52   ar
    24    15    16    1
    25    15    18    1
    26    15    20    1
    27    15    27    1
    28    16    17    1
    29    16    22    1
    30    17    23    1
    31    17    24    1
    32    18    21    1
    33    18    26    1
    34    19    20    1
    35    19    22    1
    36    19    23    1
    37    19    29    1
    38    20    30    1
    39    20    54    1
    40    21    24    1
    41    21    28    1
    42    22    55    1
    43    22    56    1
    44    23    57    1
    45    24    58    1
    46    25    33    1
    47    26    32    1
    48    26    59    1
    49    26    60    1
    50    27    61    1
    51    27    62    1
    52    27    63    1
    53    28    31    1
    54    28    35    2
    55    29    64    1
    56    29    65    1
    57    29    66    1
    58    30    37    1
    59    30    67    1
    60    30    68    1
    61    31    32    1
    62    31    34    1
    63    31    36    1
    64    32    69    1
    65    32    70    1
    66    33    71    1
    67    33    72    1
    68    33    73    1
    69    34    42    1
    70    34    74    1
    71    35    41    1
    72    35    75    1
    73    36    76    1
    74    36    77    1
    75    36    78    1
    76    38    43    1
    77    39    45    1
    78    40    44    1
    79    42    46   ar
    80    42    47   ar
    81    43    79    1
    82    43    80    1
    83    43    81    1
    84    44    49    1
    85    44    82    1
    86    44    83    1
    87    45    50    1
    88    45    51    2
    89    46    52   ar
    90    46    84    1
    91    47    85    1
    92    48    86    1
    93    48    87    1
    94    48    88    1
    95    49    89    1
    96    49    90    1
    97    49    91    1
    98    50    92    1
    99    50    93    1
   100    50    94    1
   101    51    53    1
   102    51    95    1
   103    52    96    1
   104    53    97    1
   105    53    98    1
   106    53    99    1
