@<TRIPOS>MOLECULE
IMPHY007388
 84 86 0 0 0
SMALL
GASTEIGER

@<TRIPOS>ATOM
      1 O           6.4539   -1.0691    0.0000 O.3     1  UNL1       -0.4538
      2 O           4.1444    1.3207    0.0000 O.3     1  UNL1       -0.4569
      3 O           4.5346   -2.2514    0.0000 O.3     1  UNL1       -0.4569
      4 O           3.0544   -3.1101    0.0000 O.3     1  UNL1       -0.4567
      5 O           8.0364    0.0390    0.0000 O.2     1  UNL1       -0.2511
      6 O           5.4336    2.4774    0.0000 O.2     1  UNL1       -0.2450
      7 O           3.4412   -3.5948    0.0000 O.2     1  UNL1       -0.2512
      8 O           4.4959   -1.3132    0.0000 O.2     1  UNL1       -0.2964
      9 O           3.7172   -4.7103    0.0000 O.2     1  UNL1       -0.2511
     10 C           5.4691   -0.8955    0.0000 C.3     1  UNL1        0.1604
     11 C           4.6031   -0.3955    0.0000 C.3     1  UNL1        0.0583
     12 C           6.2061   -0.2284    0.0000 C.3     1  UNL1       -0.0026
     13 C           5.8010    0.6794    0.0000 C.3     1  UNL1       -0.0022
     14 C           4.8123    0.5764    0.0000 C.3     1  UNL1        0.1161
     15 C           5.4691   -1.8955    0.0000 C.3     1  UNL1        0.1491
     16 C           5.9101   -2.7274    0.0000 C.3     1  UNL1        0.0153
     17 C           3.7371   -0.8955    0.0000 C.2     1  UNL1       -0.0711
     18 C           6.3010    1.5454    0.0000 C.3     1  UNL1       -0.0589
     19 C           3.4782   -1.8614    0.0000 C.2     1  UNL1       -0.0357
     20 C           5.6939   -3.7038    0.0000 C.3     1  UNL1       -0.0554
     21 C           6.8760   -2.9862    0.0000 C.2     1  UNL1       -0.0806
     22 C           3.9782   -2.7274    0.0000 C.3     1  UNL1        0.1305
     23 C           7.0967   -0.3031    0.0000 C.2     1  UNL1        0.3046
     24 C           4.4551    2.2712    0.0000 C.2     1  UNL1        0.3395
     25 C           7.1348   -2.0203    0.0000 C.2     1  UNL1       -0.0749
     26 C           6.1689   -1.7615    0.0000 C.3     1  UNL1        0.0415
     27 C           2.5245   -2.1620    0.0000 C.3     1  UNL1       -0.0403
     28 C           4.9442   -2.9862    0.0000 C.3     1  UNL1        0.0477
     29 C           4.3757   -3.2387    0.0000 C.2     1  UNL1        0.3043
     30 C           5.2030   -2.0203    0.0000 C.2     1  UNL1        0.1464
     31 C           6.7547    0.6366    0.0000 C.3     1  UNL1        0.0333
     32 C           3.7873    3.0155    0.0000 C.ar    1  UNL1        0.0590
     33 C           7.0752   -1.3389    0.0000 C.3     1  UNL1       -0.0496
     34 C           5.8324   -0.5058    0.0000 C.3     1  UNL1       -0.0496
     35 C           4.7318   -4.1732    0.0000 C.3     1  UNL1        0.0332
     36 C           4.0979    3.9660    0.0000 C.ar    1  UNL1       -0.0478
     37 C           2.8088    2.8093    0.0000 C.ar    1  UNL1       -0.0478
     38 C           2.9239   -4.1016    0.0000 C.2     1  UNL1        0.3045
     39 C           3.4301    4.7103    0.0000 C.ar    1  UNL1       -0.0610
     40 C           2.1409    3.5536    0.0000 C.ar    1  UNL1       -0.0610
     41 C           2.0000   -4.4843    0.0000 C.3     1  UNL1        0.0333
     42 C           2.4516    4.5041    0.0000 C.ar    1  UNL1       -0.0617
     43 H           3.9161    0.1050    0.0000 H       1  UNL1        0.0419
     44 H           6.5716   -0.7292    0.0000 H       1  UNL1        0.0309
     45 H           6.7426    0.0824    0.0000 H       1  UNL1        0.0309
     46 H           5.4636    1.1995    0.0000 H       1  UNL1        0.0335
     47 H           5.0352    1.1549    0.0000 H       1  UNL1        0.0744
     48 H           4.9586   -1.5436    0.0000 H       1  UNL1        0.0780
     49 H           5.2957   -2.8107    0.0000 H       1  UNL1        0.0377
     50 H           3.2452   -0.5180    0.0000 H       1  UNL1        0.0578
     51 H           6.8380    1.2354    0.0000 H       1  UNL1        0.0234
     52 H           6.6110    2.0824    0.0000 H       1  UNL1        0.0234
     53 H           5.7641    1.8554    0.0000 H       1  UNL1        0.0234
     54 H           5.0885   -3.5697    0.0000 H       1  UNL1        0.0237
     55 H           5.5598   -4.3091    0.0000 H       1  UNL1        0.0237
     56 H           6.2992   -3.8378    0.0000 H       1  UNL1        0.0237
     57 H           7.1860   -3.5232    0.0000 H       1  UNL1        0.0573
     58 H           4.0188   -3.3461    0.0000 H       1  UNL1        0.0786
     59 H           7.7548   -2.0203    0.0000 H       1  UNL1        0.0579
     60 H           2.3381   -1.5707    0.0000 H       1  UNL1        0.0276
     61 H           1.9332   -2.3484    0.0000 H       1  UNL1        0.0276
     62 H           2.7109   -2.7533    0.0000 H       1  UNL1        0.0276
     63 H           4.7837   -3.5851    0.0000 H       1  UNL1        0.0381
     64 H           5.5430   -3.1467    0.0000 H       1  UNL1        0.0381
     65 H           7.3373    0.8487    0.0000 H       1  UNL1        0.0342
     66 H           6.5426    1.2192    0.0000 H       1  UNL1        0.0342
     67 H           6.1721    0.4246    0.0000 H       1  UNL1        0.0342
     68 H           7.3372   -1.9008    0.0000 H       1  UNL1        0.0242
     69 H           7.6371   -1.0768    0.0000 H       1  UNL1        0.0242
     70 H           6.8132   -0.7770    0.0000 H       1  UNL1        0.0242
     71 H           6.4313   -0.3453    0.0000 H       1  UNL1        0.0242
     72 H           5.6720    0.0931    0.0000 H       1  UNL1        0.0242
     73 H           5.2336   -0.6662    0.0000 H       1  UNL1        0.0242
     74 H           4.1524   -4.3940    0.0000 H       1  UNL1        0.0342
     75 H           4.9526   -4.7525    0.0000 H       1  UNL1        0.0342
     76 H           5.3111   -3.9524    0.0000 H       1  UNL1        0.0342
     77 H           4.7046    4.0939    0.0000 H       1  UNL1        0.0626
     78 H           2.6162    2.2199    0.0000 H       1  UNL1        0.0626
     79 H           3.6227    5.2996    0.0000 H       1  UNL1        0.0618
     80 H           1.5342    3.4257    0.0000 H       1  UNL1        0.0618
     81 H           1.7627   -3.9115    0.0000 H       1  UNL1        0.0342
     82 H           1.4272   -4.7215    0.0000 H       1  UNL1        0.0342
     83 H           2.2373   -5.0571    0.0000 H       1  UNL1        0.0342
     84 H           2.0375    4.9656    0.0000 H       1  UNL1        0.0618
@<TRIPOS>BOND
     1    10     1    1
     2     1    23    1
     3    14     2    1
     4     2    24    1
     5    15     3    1
     6     3    29    1
     7    22     4    1
     8     4    38    1
     9     5    23    2
    10     6    24    2
    11     7    29    2
    12     8    30    2
    13     9    38    2
    14    10    11    1
    15    10    12    1
    16    10    15    1
    17    11    14    1
    18    11    17    1
    19    11    43    1
    20    12    13    1
    21    12    44    1
    22    12    45    1
    23    13    14    1
    24    13    18    1
    25    13    46    1
    26    14    47    1
    27    15    16    1
    28    15    48    1
    29    16    20    1
    30    16    21    1
    31    16    49    1
    32    17    19    2
    33    17    50    1
    34    18    51    1
    35    18    52    1
    36    18    53    1
    37    19    22    1
    38    19    27    1
    39    20    54    1
    40    20    55    1
    41    20    56    1
    42    21    25    2
    43    21    57    1
    44    22    28    1
    45    22    58    1
    46    23    31    1
    47    24    32    1
    48    25    26    1
    49    25    59    1
    50    26    30    1
    51    26    33    1
    52    26    34    1
    53    27    60    1
    54    27    61    1
    55    27    62    1
    56    28    30    1
    57    28    63    1
    58    28    64    1
    59    29    35    1
    60    31    65    1
    61    31    66    1
    62    31    67    1
    63    32    36   ar
    64    32    37   ar
    65    33    68    1
    66    33    69    1
    67    33    70    1
    68    34    71    1
    69    34    72    1
    70    34    73    1
    71    35    74    1
    72    35    75    1
    73    35    76    1
    74    36    39   ar
    75    36    77    1
    76    37    40   ar
    77    37    78    1
    78    38    41    1
    79    39    42   ar
    80    39    79    1
    81    40    42   ar
    82    40    80    1
    83    41    81    1
    84    41    82    1
    85    41    83    1
    86    42    84    1
