@<TRIPOS>MOLECULE
IMPHY001194
 113 120 0 0 0
SMALL
GASTEIGER

@<TRIPOS>ATOM
      1 O          10.8882    4.0403    0.0000 O.3     1  UNL1       -0.3448
      2 O           9.1158    4.9351    0.0000 O.3     1  UNL1       -0.3480
      3 O           9.4651   -4.2038    0.0000 O.3     1  UNL1       -0.3451
      4 O           7.7331   -4.2038    0.0000 O.3     1  UNL1       -0.3431
      5 O           9.4651   -6.2038    0.0000 O.3     1  UNL1       -0.3841
      6 O           7.7331   -7.2038    0.0000 O.3     1  UNL1       -0.3864
      7 O           6.0010   -6.2038    0.0000 O.3     1  UNL1       -0.3402
      8 O           5.1350   -4.7038    0.0000 O.3     1  UNL1       -0.3405
      9 O           4.2690   -7.2038    0.0000 O.3     1  UNL1       -0.3841
     10 O           2.5369   -6.2038    0.0000 O.3     1  UNL1       -0.3864
     11 O           2.5369   -4.2038    0.0000 O.3     1  UNL1       -0.3865
     12 O           5.1350   -2.7038    0.0000 O.3     1  UNL1       -0.3924
     13 C           9.4944    1.9931    0.0000 C.3     1  UNL1       -0.0233
     14 C          10.3623    1.4965    0.0000 C.3     1  UNL1       -0.0295
     15 C           9.6999    2.9657    0.0000 C.3     1  UNL1       -0.0015
     16 C          10.3662    0.4965    0.0000 C.3     1  UNL1       -0.0306
     17 C          10.6882    3.0726    0.0000 C.3     1  UNL1        0.0660
     18 C           9.5021   -0.0069    0.0000 C.3     1  UNL1       -0.0285
     19 C          11.0968    2.1664    0.0000 C.3     1  UNL1       -0.0226
     20 C           8.6303    1.4898    0.0000 C.3     1  UNL1       -0.0467
     21 C           9.2976    3.8683    0.0000 C.3     1  UNL1        0.0160
     22 C           8.6342    0.4898    0.0000 C.3     1  UNL1       -0.0486
     23 C           9.4901   -1.0484    0.0000 C.3     1  UNL1       -0.0078
     24 C          10.0305    4.5311    0.0000 C.3     1  UNL1        0.1732
     25 C           8.6264    2.4898    0.0000 C.3     1  UNL1       -0.0590
     26 C          11.2781   -0.0069    0.0000 C.3     1  UNL1       -0.0311
     27 C          10.3901   -1.5727    0.0000 C.2     1  UNL1       -0.0648
     28 C           8.5402   -1.5727    0.0000 C.3     1  UNL1       -0.0413
     29 C           8.3192    4.0750    0.0000 C.3     1  UNL1       -0.0572
     30 C          10.8378    5.1213    0.0000 C.3     1  UNL1        0.0020
     31 C          11.2902   -1.0484    0.0000 C.2     1  UNL1       -0.0839
     32 C           8.6260   -0.5451    0.0000 C.3     1  UNL1       -0.0556
     33 C          10.4027   -2.6576    0.0000 C.3     1  UNL1       -0.0047
     34 C           8.5276   -2.6576    0.0000 C.3     1  UNL1       -0.0254
     35 C           9.4651   -3.2038    0.0000 C.3     1  UNL1        0.0655
     36 C          10.7303    6.1155    0.0000 C.3     1  UNL1       -0.0435
     37 C           9.8155    6.5195    0.0000 C.3     1  UNL1       -0.0201
     38 C           9.0083    5.9293    0.0000 C.3     1  UNL1        0.0535
     39 C           9.7080    7.5138    0.0000 C.3     1  UNL1       -0.0603
     40 C           8.5991   -4.7038    0.0000 C.3     1  UNL1        0.1881
     41 C           8.5991   -5.7038    0.0000 C.3     1  UNL1        0.1341
     42 C           7.7331   -6.2038    0.0000 C.3     1  UNL1        0.1143
     43 C           6.8671   -4.7038    0.0000 C.3     1  UNL1        0.0877
     44 C           6.8671   -5.7038    0.0000 C.3     1  UNL1        0.1160
     45 C           6.0010   -4.2038    0.0000 C.3     1  UNL1       -0.0361
     46 C           5.1350   -5.7038    0.0000 C.3     1  UNL1        0.1884
     47 C           4.2690   -6.2038    0.0000 C.3     1  UNL1        0.1341
     48 C           3.4030   -5.7038    0.0000 C.3     1  UNL1        0.1141
     49 C           4.2690   -4.2038    0.0000 C.3     1  UNL1        0.1130
     50 C           3.4030   -4.7038    0.0000 C.3     1  UNL1        0.1119
     51 C           4.2690   -3.2038    0.0000 C.3     1  UNL1        0.0730
     52 H          11.1406    1.1548    0.0000 H       1  UNL1        0.0310
     53 H           8.8546    2.8762    0.0000 H       1  UNL1        0.0335
     54 H          11.0974    0.9300    0.0000 H       1  UNL1        0.0310
     55 H          11.5330    3.1658    0.0000 H       1  UNL1        0.0600
     56 H          10.2366   -0.4347    0.0000 H       1  UNL1        0.0312
     57 H          11.4642    1.6670    0.0000 H       1  UNL1        0.0293
     58 H          11.6321    2.4792    0.0000 H       1  UNL1        0.0293
     59 H           8.4160    2.0716    0.0000 H       1  UNL1        0.0271
     60 H           8.0201    1.3798    0.0000 H       1  UNL1        0.0271
     61 H           8.9078    3.3862    0.0000 H       1  UNL1        0.0354
     62 H           8.0232    0.5951    0.0000 H       1  UNL1        0.0268
     63 H           8.4244   -0.0936    0.0000 H       1  UNL1        0.0268
     64 H           8.9344    3.0279    0.0000 H       1  UNL1        0.0235
     65 H           8.0883    2.7977    0.0000 H       1  UNL1        0.0235
     66 H           8.3185    1.9517    0.0000 H       1  UNL1        0.0235
     67 H          11.8902   -0.1059    0.0000 H       1  UNL1        0.0310
     68 H          11.4804    0.5792    0.0000 H       1  UNL1        0.0310
     69 H           8.3379   -0.9866    0.0000 H       1  UNL1        0.0274
     70 H           7.9281   -1.6717    0.0000 H       1  UNL1        0.0274
     71 H           8.4473    4.6816    0.0000 H       1  UNL1        0.0234
     72 H           7.7125    4.2032    0.0000 H       1  UNL1        0.0234
     73 H           8.1910    3.4684    0.0000 H       1  UNL1        0.0234
     74 H          11.1112    4.5649    0.0000 H       1  UNL1        0.0317
     75 H          11.4333    5.2940    0.0000 H       1  UNL1        0.0317
     76 H          11.8295   -1.3543    0.0000 H       1  UNL1        0.0572
     77 H           8.9380   -0.0093    0.0000 H       1  UNL1        0.0238
     78 H           8.0902   -0.2330    0.0000 H       1  UNL1        0.0238
     79 H           8.3139   -1.0808    0.0000 H       1  UNL1        0.0238
     80 H          10.6185   -3.2389    0.0000 H       1  UNL1        0.0335
     81 H          11.0123   -2.5445    0.0000 H       1  UNL1        0.0335
     82 H           7.9180   -2.5445    0.0000 H       1  UNL1        0.0290
     83 H           8.3118   -3.2389    0.0000 H       1  UNL1        0.0290
     84 H          10.0027   -3.5127    0.0000 H       1  UNL1        0.0600
     85 H          11.3489    6.0741    0.0000 H       1  UNL1        0.0270
     86 H          10.8785    6.7176    0.0000 H       1  UNL1        0.0270
     87 H          10.3160    6.8855    0.0000 H       1  UNL1        0.0320
     88 H           8.7348    6.4858    0.0000 H       1  UNL1        0.0563
     89 H           8.4128    5.7567    0.0000 H       1  UNL1        0.0563
     90 H          10.3244    7.5804    0.0000 H       1  UNL1        0.0233
     91 H           9.6414    8.1302    0.0000 H       1  UNL1        0.0233
     92 H           9.0916    7.4471    0.0000 H       1  UNL1        0.0233
     93 H           8.5991   -4.0838    0.0000 H       1  UNL1        0.0937
     94 H           8.5991   -6.3238    0.0000 H       1  UNL1        0.0671
     95 H           7.1962   -6.5138    0.0000 H       1  UNL1        0.0648
     96 H           6.8671   -4.0838    0.0000 H       1  UNL1        0.0621
     97 H           6.3301   -5.3938    0.0000 H       1  UNL1        0.0650
     98 H          10.0021   -5.8938    0.0000 H       1  UNL1        0.2101
     99 H           6.3110   -3.6668    0.0000 H       1  UNL1        0.0255
    100 H           5.4641   -3.8938    0.0000 H       1  UNL1        0.0255
    101 H           5.6910   -4.7407    0.0000 H       1  UNL1        0.0255
    102 H           8.2700   -7.5138    0.0000 H       1  UNL1        0.2100
    103 H           5.1350   -6.3238    0.0000 H       1  UNL1        0.0938
    104 H           3.7320   -6.5138    0.0000 H       1  UNL1        0.0671
    105 H           2.8660   -5.3938    0.0000 H       1  UNL1        0.0648
    106 H           4.8059   -3.8938    0.0000 H       1  UNL1        0.0647
    107 H           3.4030   -4.0838    0.0000 H       1  UNL1        0.0647
    108 H           3.7320   -7.5138    0.0000 H       1  UNL1        0.2101
    109 H           4.0569   -2.6211    0.0000 H       1  UNL1        0.0584
    110 H           3.6584   -3.3114    0.0000 H       1  UNL1        0.0584
    111 H           2.0000   -5.8938    0.0000 H       1  UNL1        0.2100
    112 H           2.5369   -3.5838    0.0000 H       1  UNL1        0.2100
    113 H           5.1350   -2.0838    0.0000 H       1  UNL1        0.2095
@<TRIPOS>BOND
     1     1    17    1
     2    24     1    1
     3     2    24    1
     4     2    38    1
     5    35     3    1
     6    40     3    1
     7     4    40    1
     8     4    43    1
     9    41     5    1
    10     5    98    1
    11    42     6    1
    12     6   102    1
    13    44     7    1
    14    46     7    1
    15     8    46    1
    16     8    49    1
    17    47     9    1
    18     9   108    1
    19    48    10    1
    20    10   111    1
    21    50    11    1
    22    11   112    1
    23    12    51    1
    24    12   113    1
    25    13    14    1
    26    13    15    1
    27    13    20    1
    28    13    25    1
    29    14    16    1
    30    14    19    1
    31    14    52    1
    32    15    17    1
    33    15    21    1
    34    15    53    1
    35    16    18    1
    36    16    26    1
    37    16    54    1
    38    17    19    1
    39    17    55    1
    40    18    22    1
    41    18    23    1
    42    18    56    1
    43    19    57    1
    44    19    58    1
    45    20    22    1
    46    20    59    1
    47    20    60    1
    48    21    24    1
    49    21    29    1
    50    21    61    1
    51    22    62    1
    52    22    63    1
    53    23    27    1
    54    23    28    1
    55    23    32    1
    56    24    30    1
    57    25    64    1
    58    25    65    1
    59    25    66    1
    60    26    31    1
    61    26    67    1
    62    26    68    1
    63    27    31    2
    64    27    33    1
    65    28    34    1
    66    28    69    1
    67    28    70    1
    68    29    71    1
    69    29    72    1
    70    29    73    1
    71    30    36    1
    72    30    74    1
    73    30    75    1
    74    31    76    1
    75    32    77    1
    76    32    78    1
    77    32    79    1
    78    33    35    1
    79    33    80    1
    80    33    81    1
    81    34    35    1
    82    34    82    1
    83    34    83    1
    84    35    84    1
    85    36    37    1
    86    36    85    1
    87    36    86    1
    88    37    38    1
    89    37    39    1
    90    37    87    1
    91    38    88    1
    92    38    89    1
    93    39    90    1
    94    39    91    1
    95    39    92    1
    96    40    41    1
    97    40    93    1
    98    41    42    1
    99    41    94    1
   100    42    44    1
   101    42    95    1
   102    43    44    1
   103    43    45    1
   104    43    96    1
   105    44    97    1
   106    45    99    1
   107    45   100    1
   108    45   101    1
   109    46    47    1
   110    46   103    1
   111    47    48    1
   112    47   104    1
   113    48    50    1
   114    48   105    1
   115    49    50    1
   116    49    51    1
   117    49   106    1
   118    50   107    1
   119    51   109    1
   120    51   110    1
