@<TRIPOS>MOLECULE
IMPHY002199
 52 56 0 0 0
SMALL
GASTEIGER

@<TRIPOS>ATOM
      1 O           5.0100   -1.8274    0.0000 O.3     1  UNL1       -0.3200
      2 O           2.9582   -2.7822    0.0000 O.3     1  UNL1       -0.3544
      3 O           4.4124    2.8930    0.0000 O.3     1  UNL1       -0.4677
      4 O           7.7519   -1.2703    0.0000 O.co2   1  UNL1       -0.6244
      5 O           3.0475    1.8266    0.0000 O.2     1  UNL1       -0.2505
      6 N           4.9304   -1.2975    0.0000 N.pl3   1  UNL1       -0.3103
      7 N           7.6996   -0.2716    0.0000 N.3     1  UNL1       -0.2023
      8 C           4.3778    0.2165    0.0000 C.3     1  UNL1        0.0677
      9 C           5.2069   -0.3426    0.0000 C.3     1  UNL1        0.2105
     10 C           4.6535    1.1778    0.0000 C.3     1  UNL1        0.0778
     11 C           6.4279    0.5230    0.0000 C.3     1  UNL1        0.2121
     12 C           6.6867    1.4889    0.0000 C.3     1  UNL1        0.0095
     13 C           3.0749   -0.5222    0.0000 C.3     1  UNL1        0.0134
     14 C           5.9501    2.4716    0.0000 C.3     1  UNL1        0.0229
     15 C           3.5961   -0.3975    0.0000 C.ar    1  UNL1       -0.0147
     16 C           3.5174   -1.9532    0.0000 C.3     1  UNL1        0.1626
     17 C           3.9369   -1.3313    0.0000 C.ar    1  UNL1        0.0332
     18 C           8.1183    1.2913    0.0000 C.2     1  UNL1        0.0168
     19 C           4.0378    1.9658    0.0000 C.2     1  UNL1        0.3115
     20 C           8.4767    0.3577    0.0000 C.2     1  UNL1        0.1807
     21 C           2.8126    0.2796    0.0000 C.ar    1  UNL1       -0.0561
     22 C           2.9698   -1.7013    0.0000 C.ar    1  UNL1       -0.0405
     23 C           8.6630    2.1299    0.0000 C.2     1  UNL1       -0.0780
     24 C           2.0081   -0.0528    0.0000 C.ar    1  UNL1       -0.0614
     25 C           2.0000   -1.0576    0.0000 C.ar    1  UNL1       -0.0600
     26 C           3.3966   -3.6810    0.0000 C.3     1  UNL1        0.0394
     27 C           9.6616    2.0776    0.0000 C.3     1  UNL1       -0.0461
     28 C           3.7967    3.6810    0.0000 C.3     1  UNL1        0.0817
     29 H           4.0448    1.0595    0.0000 H       1  UNL1        0.0430
     30 H           6.2079   -0.2980    0.0000 H       1  UNL1        0.1124
     31 H           6.9067    2.3100    0.0000 H       1  UNL1        0.0361
     32 H           2.8087    0.0377    0.0000 H       1  UNL1        0.0324
     33 H           2.4973   -0.7475    0.0000 H       1  UNL1        0.0324
     34 H           6.2679    3.0039    0.0000 H       1  UNL1        0.0338
     35 H           5.3369    2.5635    0.0000 H       1  UNL1        0.0338
     36 H           5.5445   -1.2123    0.0000 H       1  UNL1        0.1490
     37 H           2.9041   -1.8625    0.0000 H       1  UNL1        0.0910
     38 H           9.0756    0.1972    0.0000 H       1  UNL1        0.1387
     39 H           2.9117    0.8916    0.0000 H       1  UNL1        0.0621
     40 H           2.9015   -2.3175    0.0000 H       1  UNL1        0.0636
     41 H           8.3815    2.6824    0.0000 H       1  UNL1        0.0574
     42 H           1.4941    0.2939    0.0000 H       1  UNL1        0.0618
     43 H           1.4525   -1.3485    0.0000 H       1  UNL1        0.0618
     44 H           2.8394   -3.9528    0.0000 H       1  UNL1        0.0525
     45 H           3.6684   -4.2383    0.0000 H       1  UNL1        0.0525
     46 H           3.9539   -3.4092    0.0000 H       1  UNL1        0.0525
     47 H           9.6292    1.4585    0.0000 H       1  UNL1        0.0272
     48 H          10.2808    2.0452    0.0000 H       1  UNL1        0.0272
     49 H           9.6941    2.6968    0.0000 H       1  UNL1        0.0272
     50 H           4.2853    4.0627    0.0000 H       1  UNL1        0.0661
     51 H           3.4150    4.1696    0.0000 H       1  UNL1        0.0661
     52 H           3.3082    3.2993    0.0000 H       1  UNL1        0.0661
@<TRIPOS>UNITY_ATOM_ATTR
4 1
charge -1
7 1
charge 1
@<TRIPOS>BOND
     1     9     1    1
     2     1    16    1
     3     2    16    1
     4     2    26    1
     5     3    19    1
     6     3    28    1
     7     4     7    1
     8     5    19    2
     9     6     9    1
    10     6    17    1
    11     6    36    1
    12     7    11    1
    13     7    20    2
    14     8     9    1
    15     8    10    1
    16     8    13    1
    17     8    15    1
    18     9    11    1
    19    10    12    1
    20    10    19    1
    21    10    29    1
    22    11    14    1
    23    11    30    1
    24    12    14    1
    25    12    18    1
    26    12    31    1
    27    13    16    1
    28    13    32    1
    29    13    33    1
    30    14    34    1
    31    14    35    1
    32    15    17   ar
    33    15    21   ar
    34    16    37    1
    35    17    22   ar
    36    18    20    1
    37    18    23    2
    38    20    38    1
    39    21    24   ar
    40    21    39    1
    41    22    25   ar
    42    22    40    1
    43    23    27    1
    44    23    41    1
    45    24    25   ar
    46    24    42    1
    47    25    43    1
    48    26    44    1
    49    26    45    1
    50    26    46    1
    51    27    47    1
    52    27    48    1
    53    27    49    1
    54    28    50    1
    55    28    51    1
    56    28    52    1
