@<TRIPOS>MOLECULE
IMPHY004510
 87 90 0 0 0
SMALL
GASTEIGER

@<TRIPOS>ATOM
      1 O           6.6173   -1.4652    0.0000 O.3     1  UNL1       -0.4864
      2 O           8.0125    2.4862    0.0000 O.2     1  UNL1       -0.2735
      3 O           8.2910    0.5011    0.0000 O.2     1  UNL1       -0.2736
      4 O           4.4871    3.2421    0.0000 O.2     1  UNL1       -0.2741
      5 O          11.6676    1.4506    0.0000 O.2     1  UNL1       -0.2734
      6 O           9.9939   -3.4147    0.0000 O.3     1  UNL1       -0.4945
      7 N           7.2532    0.9295    0.0000 N.am    1  UNL1       -0.2849
      8 N           9.1279   -0.0157    0.0000 N.am    1  UNL1       -0.3020
      9 N           5.4557    1.8062    0.0000 N.am    1  UNL1       -0.3025
     10 N           2.8290    2.1237    0.0000 N.3     1  UNL1       -0.2979
     11 N          10.8016   -0.0157    0.0000 N.am    1  UNL1       -0.2904
     12 C           7.4542   -0.0157    0.0000 C.3     1  UNL1        0.1390
     13 C           6.6173   -0.4989    0.0000 C.3     1  UNL1        0.1285
     14 C           5.8992    0.1477    0.0000 C.3     1  UNL1        0.0024
     15 C           6.2922    1.0305    0.0000 C.3     1  UNL1        0.0191
     16 C           7.1835    1.9270    0.0000 C.2     1  UNL1        0.2369
     17 C           6.2847    2.3654    0.0000 C.3     1  UNL1        0.1019
     18 C           8.2910   -0.4989    0.0000 C.2     1  UNL1        0.2378
     19 C           6.2149    3.3630    0.0000 C.3     1  UNL1       -0.0197
     20 C           9.1279    0.9506    0.0000 C.3     1  UNL1        0.1037
     21 C           5.3162    3.8013    0.0000 C.3     1  UNL1       -0.0605
     22 C           7.0440    3.9222    0.0000 C.3     1  UNL1       -0.0605
     23 C           7.4542   -1.9484    0.0000 C.ar    1  UNL1        0.1218
     24 C           8.6279    1.8166    0.0000 C.3     1  UNL1       -0.0006
     25 C           4.5569    2.2446    0.0000 C.2     1  UNL1        0.2306
     26 C           3.7278    1.6854    0.0000 C.3     1  UNL1        0.0839
     27 C          10.8016    0.9506    0.0000 C.2     1  UNL1        0.2374
     28 C           8.2910   -1.4652    0.0000 C.ar    1  UNL1       -0.0092
     29 C           7.4542   -2.9147    0.0000 C.ar    1  UNL1       -0.0164
     30 C           9.1278    2.6826    0.0000 C.ar    1  UNL1       -0.0451
     31 C           9.1279   -1.9484    0.0000 C.ar    1  UNL1        0.0213
     32 C           8.2910   -3.3978    0.0000 C.ar    1  UNL1       -0.0159
     33 C           3.7976    0.6878    0.0000 C.3     1  UNL1       -0.0410
     34 C           9.1279   -2.9147    0.0000 C.ar    1  UNL1        0.1275
     35 C           9.9647   -1.4652    0.0000 C.2     1  UNL1       -0.0371
     36 C           9.9647   -0.4989    0.0000 C.2     1  UNL1       -0.0030
     37 C          10.1279    2.6826    0.0000 C.ar    1  UNL1       -0.0585
     38 C           8.6278    3.5486    0.0000 C.ar    1  UNL1       -0.0585
     39 C           2.0000    1.5645    0.0000 C.3     1  UNL1       -0.0123
     40 C           2.7593    3.1213    0.0000 C.3     1  UNL1       -0.0123
     41 C          10.6278    3.5487    0.0000 C.ar    1  UNL1       -0.0615
     42 C           9.1278    4.4147    0.0000 C.ar    1  UNL1       -0.0615
     43 C          10.1278    4.4147    0.0000 C.ar    1  UNL1       -0.0617
     44 C           9.9939   -4.4147    0.0000 C.3     1  UNL1        0.0788
     45 H           8.1418    0.4839    0.0000 H       1  UNL1        0.0634
     46 H           5.8408   -0.8446    0.0000 H       1  UNL1        0.0757
     47 H           5.3623    0.4577    0.0000 H       1  UNL1        0.0317
     48 H           5.5348   -0.3539    0.0000 H       1  UNL1        0.0317
     49 H           6.4211    1.6369    0.0000 H       1  UNL1        0.0466
     50 H           5.7026    1.2221    0.0000 H       1  UNL1        0.0466
     51 H           5.5207    2.7380    0.0000 H       1  UNL1        0.0597
     52 H           6.7722    3.0912    0.0000 H       1  UNL1        0.0318
     53 H           9.6642    0.2952    0.0000 H       1  UNL1        0.1495
     54 H           5.4989    1.1877    0.0000 H       1  UNL1        0.1495
     55 H           8.3068    0.7306    0.0000 H       1  UNL1        0.0598
     56 H           7.3907    3.4081    0.0000 H       1  UNL1        0.0233
     57 H           7.5580    4.2688    0.0000 H       1  UNL1        0.0233
     58 H           6.6973    4.4361    0.0000 H       1  UNL1        0.0233
     59 H           5.5879    4.3586    0.0000 H       1  UNL1        0.0233
     60 H           4.7589    4.0731    0.0000 H       1  UNL1        0.0233
     61 H           5.0444    3.2441    0.0000 H       1  UNL1        0.0233
     62 H           8.1529    2.2151    0.0000 H       1  UNL1        0.0336
     63 H           8.1529    1.4181    0.0000 H       1  UNL1        0.0336
     64 H           3.6685    2.5333    0.0000 H       1  UNL1        0.0555
     65 H           8.2910   -0.8452    0.0000 H       1  UNL1        0.0661
     66 H           6.9172   -3.2247    0.0000 H       1  UNL1        0.0655
     67 H           8.2910   -4.0178    0.0000 H       1  UNL1        0.0655
     68 H           3.1791    0.6446    0.0000 H       1  UNL1        0.0249
     69 H           3.8408    0.0693    0.0000 H       1  UNL1        0.0249
     70 H           4.4161    0.7311    0.0000 H       1  UNL1        0.0249
     71 H          11.3385   -0.3257    0.0000 H       1  UNL1        0.1543
     72 H          10.5016   -1.7752    0.0000 H       1  UNL1        0.0637
     73 H          10.5016   -0.8089    0.0000 H       1  UNL1        0.0782
     74 H          10.4379    2.1457    0.0000 H       1  UNL1        0.0620
     75 H           8.0078    3.5486    0.0000 H       1  UNL1        0.0620
     76 H           1.6533    2.0785    0.0000 H       1  UNL1        0.0391
     77 H           1.4860    1.2178    0.0000 H       1  UNL1        0.0391
     78 H           2.3467    1.0505    0.0000 H       1  UNL1        0.0391
     79 H           3.3778    3.1646    0.0000 H       1  UNL1        0.0391
     80 H           2.7160    3.7398    0.0000 H       1  UNL1        0.0391
     81 H           2.1408    3.0780    0.0000 H       1  UNL1        0.0391
     82 H          11.2478    3.5487    0.0000 H       1  UNL1        0.0618
     83 H           8.8178    4.9516    0.0000 H       1  UNL1        0.0618
     84 H          10.4378    4.9516    0.0000 H       1  UNL1        0.0618
     85 H           9.3739   -4.4147    0.0000 H       1  UNL1        0.0660
     86 H           9.9939   -5.0347    0.0000 H       1  UNL1        0.0660
     87 H          10.6139   -4.4147    0.0000 H       1  UNL1        0.0660
@<TRIPOS>BOND
     1     1    13    1
     2     1    23    1
     3     2    16    2
     4     3    18    2
     5     4    25    2
     6     5    27    2
     7     6    34    1
     8     6    44    1
     9     7    12    1
    10     7    15    1
    11     7    16   am
    12     8    18   am
    13     8    20    1
    14     8    53    1
    15     9    17    1
    16     9    25   am
    17     9    54    1
    18    10    26    1
    19    10    39    1
    20    10    40    1
    21    11    27   am
    22    11    36    1
    23    11    71    1
    24    12    13    1
    25    12    18    1
    26    12    45    1
    27    13    14    1
    28    13    46    1
    29    14    15    1
    30    14    47    1
    31    14    48    1
    32    15    49    1
    33    15    50    1
    34    16    17    1
    35    17    19    1
    36    17    51    1
    37    19    21    1
    38    19    22    1
    39    19    52    1
    40    20    24    1
    41    20    27    1
    42    20    55    1
    43    21    59    1
    44    21    60    1
    45    21    61    1
    46    22    56    1
    47    22    57    1
    48    22    58    1
    49    23    28   ar
    50    23    29   ar
    51    24    30    1
    52    24    62    1
    53    24    63    1
    54    25    26    1
    55    26    33    1
    56    26    64    1
    57    28    31   ar
    58    28    65    1
    59    29    32   ar
    60    29    66    1
    61    30    37   ar
    62    30    38   ar
    63    31    34   ar
    64    31    35    1
    65    32    34   ar
    66    32    67    1
    67    33    68    1
    68    33    69    1
    69    33    70    1
    70    35    36    2
    71    35    72    1
    72    36    73    1
    73    37    41   ar
    74    37    74    1
    75    38    42   ar
    76    38    75    1
    77    39    76    1
    78    39    77    1
    79    39    78    1
    80    40    79    1
    81    40    80    1
    82    40    81    1
    83    41    43   ar
    84    41    82    1
    85    42    43   ar
    86    42    83    1
    87    43    84    1
    88    44    85    1
    89    44    86    1
    90    44    87    1
