@<TRIPOS>MOLECULE
IMPHY015155
 45 46 0 0 0
SMALL
GASTEIGER

@<TRIPOS>ATOM
      1 O           4.3878   -2.1836    0.0000 O.3     1  UNL1       -0.4643
      2 O           3.0633   -3.2996    0.0000 O.2     1  UNL1       -0.2512
      3 C           4.0835   -0.4785    0.0000 C.3     1  UNL1        0.0061
      4 C           4.4245    0.4704    0.0000 C.3     1  UNL1       -0.0257
      5 C           3.4848    0.8125    0.0000 C.3     1  UNL1       -0.0161
      6 C           3.1361   -0.1336    0.0000 C.3     1  UNL1       -0.0374
      7 C           5.3642    0.8125    0.0000 C.3     1  UNL1       -0.0454
      8 C           3.7434   -1.4188    0.0000 C.3     1  UNL1        0.0981
      9 C           5.0239   -0.8185    0.0000 C.3     1  UNL1       -0.0562
     10 C           2.9848    1.6785    0.0000 C.2     1  UNL1       -0.0729
     11 C           5.8642    1.6785    0.0000 C.3     1  UNL1       -0.0317
     12 C           3.1585    2.6633    0.0000 C.3     1  UNL1       -0.0283
     13 C           5.6905    2.6633    0.0000 C.2     1  UNL1       -0.0765
     14 C           3.9245    3.3061    0.0000 C.3     1  UNL1       -0.0308
     15 C           2.0000    1.5048    0.0000 C.2     1  UNL1       -0.0992
     16 C           4.9245    3.3061    0.0000 C.2     1  UNL1       -0.0847
     17 C           6.5566    3.1633    0.0000 C.3     1  UNL1       -0.0438
     18 C           4.0477   -3.1240    0.0000 C.2     1  UNL1        0.3040
     19 C           4.6921   -3.8887    0.0000 C.3     1  UNL1        0.0332
     20 H           5.0268   -0.1294    0.0000 H       1  UNL1        0.0313
     21 H           2.6379    0.7401    0.0000 H       1  UNL1        0.0349
     22 H           2.5540    0.0800    0.0000 H       1  UNL1        0.0277
     23 H           2.9232   -0.7159    0.0000 H       1  UNL1        0.0277
     24 H           5.4002    0.1935    0.0000 H       1  UNL1        0.0271
     25 H           5.9675    0.6695    0.0000 H       1  UNL1        0.0271
     26 H           3.2059   -1.1100    0.0000 H       1  UNL1        0.0703
     27 H           3.3459   -1.8946    0.0000 H       1  UNL1        0.0703
     28 H           4.8131   -1.4016    0.0000 H       1  UNL1        0.0236
     29 H           5.6070   -1.0294    0.0000 H       1  UNL1        0.0236
     30 H           5.2348   -0.2355    0.0000 H       1  UNL1        0.0236
     31 H           6.2897    1.2275    0.0000 H       1  UNL1        0.0310
     32 H           6.4182    1.9567    0.0000 H       1  UNL1        0.0310
     33 H           2.9129    3.2326    0.0000 H       1  UNL1        0.0313
     34 H           2.5426    2.5913    0.0000 H       1  UNL1        0.0313
     35 H           4.1023    3.9000    0.0000 H       1  UNL1        0.0310
     36 H           3.4065    3.6468    0.0000 H       1  UNL1        0.0310
     37 H           1.6015    1.9798    0.0000 H       1  UNL1        0.0534
     38 H           1.7880    0.9222    0.0000 H       1  UNL1        0.0534
     39 H           5.1366    3.8887    0.0000 H       1  UNL1        0.0572
     40 H           6.8666    2.6264    0.0000 H       1  UNL1        0.0274
     41 H           7.0935    3.4733    0.0000 H       1  UNL1        0.0274
     42 H           6.2466    3.7002    0.0000 H       1  UNL1        0.0274
     43 H           4.2180   -4.2882    0.0000 H       1  UNL1        0.0342
     44 H           5.0916   -4.3628    0.0000 H       1  UNL1        0.0342
     45 H           5.1662   -3.4892    0.0000 H       1  UNL1        0.0342
@<TRIPOS>BOND
     1     1     8    1
     2     1    18    1
     3     2    18    2
     4     3     4    1
     5     3     6    1
     6     3     8    1
     7     3     9    1
     8     4     5    1
     9     4     7    1
    10     4    20    1
    11     5     6    1
    12     5    10    1
    13     5    21    1
    14     6    22    1
    15     6    23    1
    16     7    11    1
    17     7    24    1
    18     7    25    1
    19     8    26    1
    20     8    27    1
    21     9    28    1
    22     9    29    1
    23     9    30    1
    24    10    12    1
    25    10    15    2
    26    11    13    1
    27    11    31    1
    28    11    32    1
    29    12    14    1
    30    12    33    1
    31    12    34    1
    32    13    16    2
    33    13    17    1
    34    14    16    1
    35    14    35    1
    36    14    36    1
    37    15    37    1
    38    15    38    1
    39    16    39    1
    40    17    40    1
    41    17    41    1
    42    17    42    1
    43    18    19    1
    44    19    43    1
    45    19    44    1
    46    19    45    1
