@<TRIPOS>MOLECULE
IMPHY000286
 53 56 0 0 0
SMALL
GASTEIGER

@<TRIPOS>ATOM
      1 O           2.6200   -2.6102    0.0000 O.3     1  UNL1       -0.3886
      2 O           8.6583    0.5742    0.0000 O.3     1  UNL1       -0.3947
      3 C           5.8238   -0.1281    0.0000 C.3     1  UNL1       -0.0253
      4 C           4.9553    0.3676    0.0000 C.3     1  UNL1       -0.0296
      5 C           4.0478   -0.1438    0.0000 C.3     1  UNL1       -0.0233
      6 C           4.0450   -1.1854    0.0000 C.3     1  UNL1       -0.0067
      7 C           5.7993    1.0533    0.0000 C.3     1  UNL1       -0.0439
      8 C           6.4754    2.0223    0.0000 C.3     1  UNL1       -0.0356
      9 C           6.7528    0.2419    0.0000 C.3     1  UNL1       -0.0419
     10 C           5.8450   -1.1695    0.0000 C.3     1  UNL1       -0.0467
     11 C           7.0428    1.1989    0.0000 C.3     1  UNL1       -0.0145
     12 C           4.8013    1.3557    0.0000 C.3     1  UNL1       -0.0489
     13 C           4.9496   -1.7017    0.0000 C.3     1  UNL1       -0.0466
     14 C           5.4778    2.0921    0.0000 C.3     1  UNL1       -0.0496
     15 C           3.1182    0.4157    0.0000 C.3     1  UNL1       -0.0469
     16 C           3.1123   -1.7398    0.0000 C.3     1  UNL1        0.0666
     17 C           3.7083    0.7968    0.0000 C.3     1  UNL1       -0.0589
     18 C           2.1729   -0.1170    0.0000 C.3     1  UNL1       -0.0499
     19 C           2.1700   -1.2020    0.0000 C.3     1  UNL1       -0.0240
     20 C           8.0309    1.3529    0.0000 C.3     1  UNL1        0.0473
     21 C           3.6199   -2.6014    0.0000 C.3     1  UNL1       -0.0358
     22 H           4.2170    0.7889    0.0000 H       1  UNL1        0.0311
     23 H           4.0525   -2.0354    0.0000 H       1  UNL1        0.0334
     24 H           5.4250    1.5476    0.0000 H       1  UNL1        0.0273
     25 H           5.2136    0.8498    0.0000 H       1  UNL1        0.0273
     26 H           6.7219    2.8358    0.0000 H       1  UNL1        0.0304
     27 H           6.8483   -0.3707    0.0000 H       1  UNL1        0.0274
     28 H           7.3713    0.1986    0.0000 H       1  UNL1        0.0274
     29 H           6.0660   -1.7488    0.0000 H       1  UNL1        0.0271
     30 H           6.4536   -1.0510    0.0000 H       1  UNL1        0.0271
     31 H           7.4496    0.7310    0.0000 H       1  UNL1        0.0326
     32 H           4.4495    1.8662    0.0000 H       1  UNL1        0.0268
     33 H           4.2253    1.1263    0.0000 H       1  UNL1        0.0268
     34 H           4.5547   -2.1797    0.0000 H       1  UNL1        0.0269
     35 H           5.3530   -2.1726    0.0000 H       1  UNL1        0.0269
     36 H           5.6576    2.6854    0.0000 H       1  UNL1        0.0268
     37 H           4.9393    2.3994    0.0000 H       1  UNL1        0.0268
     38 H           3.5240    0.8843    0.0000 H       1  UNL1        0.0271
     39 H           2.7258    0.8957    0.0000 H       1  UNL1        0.0271
     40 H           4.2915    1.0073    0.0000 H       1  UNL1        0.0235
     41 H           3.4979    1.3800    0.0000 H       1  UNL1        0.0235
     42 H           3.1252    0.5864    0.0000 H       1  UNL1        0.0235
     43 H           1.9655    0.4673    0.0000 H       1  UNL1        0.0266
     44 H           1.5618   -0.2214    0.0000 H       1  UNL1        0.0266
     45 H           1.5594   -1.0942    0.0000 H       1  UNL1        0.0293
     46 H           1.9593   -1.7851    0.0000 H       1  UNL1        0.0293
     47 H           8.5739    1.6521    0.0000 H       1  UNL1        0.0560
     48 H           7.8305    1.9396    0.0000 H       1  UNL1        0.0560
     49 H           3.0858   -2.9161    0.0000 H       1  UNL1        0.0257
     50 H           3.9347   -3.1356    0.0000 H       1  UNL1        0.0257
     51 H           4.1541   -2.2866    0.0000 H       1  UNL1        0.0257
     52 H           2.0000   -2.6157    0.0000 H       1  UNL1        0.2102
     53 H           9.2709    0.6696    0.0000 H       1  UNL1        0.2094
@<TRIPOS>BOND
     1    16     1    1
     2     1    52    1
     3     2    20    1
     4     2    53    1
     5     3     4    1
     6     3     7    1
     7     3     9    1
     8     3    10    1
     9     4     5    1
    10     4    12    1
    11     4    22    1
    12     5     6    1
    13     5    15    1
    14     5    17    1
    15     6    13    1
    16     6    16    1
    17     6    23    1
    18     7     8    1
    19     7    24    1
    20     7    25    1
    21     8    11    1
    22     8    14    1
    23     8    26    1
    24     9    11    1
    25     9    27    1
    26     9    28    1
    27    10    13    1
    28    10    29    1
    29    10    30    1
    30    11    20    1
    31    11    31    1
    32    12    14    1
    33    12    32    1
    34    12    33    1
    35    13    34    1
    36    13    35    1
    37    14    36    1
    38    14    37    1
    39    15    18    1
    40    15    38    1
    41    15    39    1
    42    16    19    1
    43    16    21    1
    44    17    40    1
    45    17    41    1
    46    17    42    1
    47    18    19    1
    48    18    43    1
    49    18    44    1
    50    19    45    1
    51    19    46    1
    52    20    47    1
    53    20    48    1
    54    21    49    1
    55    21    50    1
    56    21    51    1
