@<TRIPOS>MOLECULE
IMPHY007557
 38 40 0 0 0
SMALL
GASTEIGER

@<TRIPOS>ATOM
      1 O           3.7230   -0.3370    0.0000 O.3     1  UNL1       -0.4598
      2 O           4.5447    2.8284    0.0000 O.3     1  UNL1       -0.3911
      3 O           2.0000    0.0951    0.0000 O.2     1  UNL1       -0.2505
      4 O           8.0559   -0.4172    0.0000 O.2     1  UNL1       -0.2876
      5 O           5.1318   -2.9114    0.0000 O.3     1  UNL1       -0.3907
      6 C           4.3551    1.1456    0.0000 C.3     1  UNL1        0.0359
      7 C           4.5777    0.1706    0.0000 C.3     1  UNL1        0.1196
      8 C           5.4786   -0.2633    0.0000 C.3     1  UNL1        0.0487
      9 C           3.3648    1.2321    0.0000 C.3     1  UNL1        0.0622
     10 C           4.9786    1.9274    0.0000 C.3     1  UNL1        0.0659
     11 C           6.3796    0.1706    0.0000 C.2     1  UNL1        0.0090
     12 C           5.9786    1.9274    0.0000 C.3     1  UNL1       -0.0048
     13 C           6.6021    1.1456    0.0000 C.2     1  UNL1       -0.0627
     14 C           5.6146   -1.2480    0.0000 C.2     1  UNL1       -0.0298
     15 C           2.9749    0.3177    0.0000 C.2     1  UNL1        0.3107
     16 C           2.8504    2.0896    0.0000 C.3     1  UNL1       -0.0518
     17 C           7.0647   -0.5497    0.0000 C.2     1  UNL1        0.1828
     18 C           6.5929   -1.4246    0.0000 C.2     1  UNL1       -0.0126
     19 C           4.8930   -1.9403    0.0000 C.3     1  UNL1        0.0664
     20 C           7.5770    1.3681    0.0000 C.3     1  UNL1       -0.0430
     21 H           5.1838    0.9564    0.0000 H       1  UNL1        0.0370
     22 H           4.6147   -0.6786    0.0000 H       1  UNL1        0.0747
     23 H           4.7916   -0.7638    0.0000 H       1  UNL1        0.0432
     24 H           3.6936    1.7578    0.0000 H       1  UNL1        0.0415
     25 H           4.3625    1.9968    0.0000 H       1  UNL1        0.0600
     26 H           6.5372    2.1964    0.0000 H       1  UNL1        0.0335
     27 H           5.8407    2.5318    0.0000 H       1  UNL1        0.0335
     28 H           3.3821    2.4086    0.0000 H       1  UNL1        0.0238
     29 H           2.5315    2.6213    0.0000 H       1  UNL1        0.0238
     30 H           2.3188    1.7707    0.0000 H       1  UNL1        0.0238
     31 H           6.8619   -1.9832    0.0000 H       1  UNL1        0.0656
     32 H           4.5480   -1.4252    0.0000 H       1  UNL1        0.0604
     33 H           4.3258   -2.1906    0.0000 H       1  UNL1        0.0604
     34 H           4.8940    3.3406    0.0000 H       1  UNL1        0.2098
     35 H           7.7150    0.7636    0.0000 H       1  UNL1        0.0275
     36 H           8.1815    1.5060    0.0000 H       1  UNL1        0.0275
     37 H           7.4391    1.9725    0.0000 H       1  UNL1        0.0275
     38 H           4.6844   -3.3406    0.0000 H       1  UNL1        0.2098
@<TRIPOS>BOND
     1     1     7    1
     2     1    15    1
     3    10     2    1
     4     2    34    1
     5     3    15    2
     6     4    17    2
     7     5    19    1
     8     5    38    1
     9     6     7    1
    10     6     9    1
    11     6    10    1
    12     6    21    1
    13     7     8    1
    14     7    22    1
    15     8    11    1
    16     8    14    1
    17     8    23    1
    18     9    15    1
    19     9    16    1
    20     9    24    1
    21    10    12    1
    22    10    25    1
    23    11    13    2
    24    11    17    1
    25    12    13    1
    26    12    26    1
    27    12    27    1
    28    13    20    1
    29    14    18    2
    30    14    19    1
    31    16    28    1
    32    16    29    1
    33    16    30    1
    34    17    18    1
    35    18    31    1
    36    19    32    1
    37    19    33    1
    38    20    35    1
    39    20    36    1
    40    20    37    1
