@<TRIPOS>MOLECULE
IMPHY006471
 44 46 0 0 0
SMALL
GASTEIGER

@<TRIPOS>ATOM
      1 O           7.2036   -1.2903    0.0000 O.3     1  UNL1       -0.4842
      2 O           4.6200   -0.4856    0.0000 O.3     1  UNL1       -0.4516
      3 O           8.9998    1.5559    0.0000 O.2     1  UNL1       -0.4218
      4 O           4.6200   -2.2176    0.0000 O.2     1  UNL1       -0.2453
      5 O           9.8940    3.0837    0.0000 O.2     1  UNL1       -0.2452
      6 C           6.6200   -0.4856    0.0000 C.3     1  UNL1        0.1433
      7 C           5.6200   -0.4856    0.0000 C.3     1  UNL1        0.1450
      8 C           7.2036    0.3191    0.0000 C.3     1  UNL1        0.0203
      9 C           8.1498    0.0144    0.0000 C.ar    1  UNL1        0.0408
     10 C           8.1498   -0.9856    0.0000 C.ar    1  UNL1        0.1279
     11 C           5.6200   -1.4856    0.0000 C.3     1  UNL1       -0.0215
     12 C           5.6200    0.5144    0.0000 C.3     1  UNL1       -0.0215
     13 C           9.0158    0.5144    0.0000 C.ar    1  UNL1        0.1458
     14 C           9.0158   -1.4856    0.0000 C.ar    1  UNL1       -0.0189
     15 C           9.8819    0.0144    0.0000 C.ar    1  UNL1        0.0181
     16 C           9.8819   -0.9856    0.0000 C.ar    1  UNL1       -0.0476
     17 C           4.1200   -1.3516    0.0000 C.2     1  UNL1        0.3352
     18 C          10.7919    0.5213    0.0000 C.ar    1  UNL1       -0.0443
     19 C           9.8978    2.0837    0.0000 C.ar    1  UNL1        0.3372
     20 C          10.7999    1.5629    0.0000 C.ar    1  UNL1        0.0236
     21 C           3.1200   -1.3516    0.0000 C.2     1  UNL1        0.0294
     22 C           2.6200   -0.4856    0.0000 C.3     1  UNL1       -0.0333
     23 C           2.6200   -2.2176    0.0000 C.2     1  UNL1       -0.0774
     24 C           3.1200   -3.0837    0.0000 C.3     1  UNL1       -0.0461
     25 H           6.2338   -1.2428    0.0000 H       1  UNL1        0.0777
     26 H           7.4546    0.8860    0.0000 H       1  UNL1        0.0353
     27 H           6.6662    0.6284    0.0000 H       1  UNL1        0.0353
     28 H           5.0000   -1.4856    0.0000 H       1  UNL1        0.0269
     29 H           5.6200   -2.1056    0.0000 H       1  UNL1        0.0269
     30 H           6.2400   -1.4856    0.0000 H       1  UNL1        0.0269
     31 H           6.2400    0.5144    0.0000 H       1  UNL1        0.0269
     32 H           5.6200    1.1344    0.0000 H       1  UNL1        0.0269
     33 H           5.0000    0.5144    0.0000 H       1  UNL1        0.0269
     34 H           9.0158   -2.1056    0.0000 H       1  UNL1        0.0654
     35 H          10.4188   -1.2956    0.0000 H       1  UNL1        0.0626
     36 H          11.3252    0.2051    0.0000 H       1  UNL1        0.0627
     37 H          11.3380    1.8708    0.0000 H       1  UNL1        0.0689
     38 H           3.1569   -0.1756    0.0000 H       1  UNL1        0.0280
     39 H           2.3100    0.0513    0.0000 H       1  UNL1        0.0280
     40 H           2.0831   -0.7956    0.0000 H       1  UNL1        0.0280
     41 H           2.0000   -2.2176    0.0000 H       1  UNL1        0.0574
     42 H           2.5831   -3.3937    0.0000 H       1  UNL1        0.0272
     43 H           3.4300   -3.6206    0.0000 H       1  UNL1        0.0272
     44 H           3.6569   -2.7737    0.0000 H       1  UNL1        0.0272
@<TRIPOS>BOND
     1     1     6    1
     2     1    10    1
     3     2     7    1
     4     2    17    1
     5     3    13   ar
     6     3    19   ar
     7     4    17    2
     8     5    19    2
     9     6     7    1
    10     6     8    1
    11     6    25    1
    12     7    11    1
    13     7    12    1
    14     8     9    1
    15     8    26    1
    16     8    27    1
    17     9    10   ar
    18     9    13   ar
    19    10    14   ar
    20    11    28    1
    21    11    29    1
    22    11    30    1
    23    12    31    1
    24    12    32    1
    25    12    33    1
    26    13    15   ar
    27    14    16   ar
    28    14    34    1
    29    15    16   ar
    30    15    18   ar
    31    16    35    1
    32    17    21    1
    33    18    20   ar
    34    18    36    1
    35    19    20   ar
    36    20    37    1
    37    21    22    1
    38    21    23    2
    39    22    38    1
    40    22    39    1
    41    22    40    1
    42    23    24    1
    43    23    41    1
    44    24    42    1
    45    24    43    1
    46    24    44    1
