@<TRIPOS>MOLECULE
IMPHY006771
 59 62 0 0 0
SMALL
GASTEIGER

@<TRIPOS>ATOM
      1 O           4.0347   -4.8421    0.0000 O.3     1  UNL1       -0.3912
      2 O           4.0347   -0.1101    0.0000 O.3     1  UNL1       -0.4913
      3 O           7.5648   -3.8663    0.0000 O.2     1  UNL1       -0.2971
      4 O           4.0693    3.3820    0.0000 O.2     1  UNL1       -0.4220
      5 O           4.0588    5.1521    0.0000 O.2     1  UNL1       -0.2452
      6 C           4.9007   -3.3421    0.0000 C.3     1  UNL1        0.0066
      7 C           4.9007   -2.3421    0.0000 C.3     1  UNL1       -0.0235
      8 C           4.0347   -1.8421    0.0000 C.3     1  UNL1        0.0081
      9 C           3.1686   -2.3421    0.0000 C.3     1  UNL1       -0.0328
     10 C           4.0347   -3.8421    0.0000 C.3     1  UNL1        0.0618
     11 C           5.7946   -3.8768    0.0000 C.3     1  UNL1        0.0227
     12 C           3.1686   -3.3421    0.0000 C.3     1  UNL1       -0.0231
     13 C           5.7946   -1.8074    0.0000 C.3     1  UNL1       -0.0423
     14 C           4.9007   -4.3421    0.0000 C.3     1  UNL1       -0.0563
     15 C           3.5347   -0.9761    0.0000 C.3     1  UNL1        0.0954
     16 C           6.7007   -2.3213    0.0000 C.3     1  UNL1        0.0064
     17 C           4.5347   -0.9761    0.0000 C.3     1  UNL1       -0.0559
     18 C           6.7007   -3.3629    0.0000 C.2     1  UNL1        0.1368
     19 C           2.3026   -1.8421    0.0000 C.3     1  UNL1       -0.0617
     20 C           5.7831   -4.8767    0.0000 C.3     1  UNL1       -0.0551
     21 C           3.5347    0.7560    0.0000 C.ar    1  UNL1        0.1241
     22 C           4.0347    1.6220    0.0000 C.ar    1  UNL1        0.0231
     23 C           2.5347    0.7560    0.0000 C.ar    1  UNL1       -0.0192
     24 C           3.5347    2.4880    0.0000 C.ar    1  UNL1        0.1425
     25 C           2.0347    1.6220    0.0000 C.ar    1  UNL1       -0.0476
     26 C           2.5347    2.4880    0.0000 C.ar    1  UNL1        0.0178
     27 C           2.0000    3.3820    0.0000 C.ar    1  UNL1       -0.0443
     28 C           3.5555    4.2880    0.0000 C.ar    1  UNL1        0.3372
     29 C           2.5138    4.2880    0.0000 C.ar    1  UNL1        0.0236
     30 H           4.8941   -1.4921    0.0000 H       1  UNL1        0.0314
     31 H           3.1686   -1.7221    0.0000 H       1  UNL1        0.0305
     32 H           3.4977   -4.1521    0.0000 H       1  UNL1        0.0599
     33 H           6.3286   -4.1919    0.0000 H       1  UNL1        0.0381
     34 H           2.5580   -3.2344    0.0000 H       1  UNL1        0.0293
     35 H           2.9566   -3.9247    0.0000 H       1  UNL1        0.0293
     36 H           6.1882   -1.3284    0.0000 H       1  UNL1        0.0272
     37 H           5.3900   -1.3377    0.0000 H       1  UNL1        0.0272
     38 H           4.2807   -4.3421    0.0000 H       1  UNL1        0.0236
     39 H           4.9007   -4.9621    0.0000 H       1  UNL1        0.0236
     40 H           5.5207   -4.3421    0.0000 H       1  UNL1        0.0236
     41 H           3.0597   -0.5776    0.0000 H       1  UNL1        0.0702
     42 H           3.0597   -1.3746    0.0000 H       1  UNL1        0.0702
     43 H           7.3116   -2.4274    0.0000 H       1  UNL1        0.0342
     44 H           6.9098   -1.7376    0.0000 H       1  UNL1        0.0342
     45 H           5.0716   -1.2861    0.0000 H       1  UNL1        0.0236
     46 H           4.8447   -0.4392    0.0000 H       1  UNL1        0.0236
     47 H           3.9977   -0.6661    0.0000 H       1  UNL1        0.0236
     48 H           2.6126   -1.3052    0.0000 H       1  UNL1        0.0233
     49 H           1.7657   -1.5321    0.0000 H       1  UNL1        0.0233
     50 H           1.9926   -2.3790    0.0000 H       1  UNL1        0.0233
     51 H           5.1631   -4.8695    0.0000 H       1  UNL1        0.0237
     52 H           5.7759   -5.4967    0.0000 H       1  UNL1        0.0237
     53 H           6.4030   -4.8839    0.0000 H       1  UNL1        0.0237
     54 H           3.4977   -5.1521    0.0000 H       1  UNL1        0.2098
     55 H           4.6547    1.6220    0.0000 H       1  UNL1        0.0691
     56 H           2.2247    0.2190    0.0000 H       1  UNL1        0.0654
     57 H           1.4147    1.6220    0.0000 H       1  UNL1        0.0626
     58 H           1.3800    3.3748    0.0000 H       1  UNL1        0.0627
     59 H           2.2018    4.8238    0.0000 H       1  UNL1        0.0689
@<TRIPOS>BOND
     1    10     1    1
     2     1    54    1
     3     2    15    1
     4     2    21    1
     5     3    18    2
     6     4    24   ar
     7     4    28   ar
     8     5    28    2
     9     6     7    1
    10     6    10    1
    11     6    11    1
    12     6    14    1
    13     7     8    1
    14     7    13    1
    15     7    30    1
    16     8     9    1
    17     8    15    1
    18     8    17    1
    19     9    12    1
    20     9    19    1
    21     9    31    1
    22    10    12    1
    23    10    32    1
    24    11    18    1
    25    11    20    1
    26    11    33    1
    27    12    34    1
    28    12    35    1
    29    13    16    1
    30    13    36    1
    31    13    37    1
    32    14    38    1
    33    14    39    1
    34    14    40    1
    35    15    41    1
    36    15    42    1
    37    16    18    1
    38    16    43    1
    39    16    44    1
    40    17    45    1
    41    17    46    1
    42    17    47    1
    43    19    48    1
    44    19    49    1
    45    19    50    1
    46    20    51    1
    47    20    52    1
    48    20    53    1
    49    21    22   ar
    50    21    23   ar
    51    22    24   ar
    52    22    55    1
    53    23    25   ar
    54    23    56    1
    55    24    26   ar
    56    25    26   ar
    57    25    57    1
    58    26    27   ar
    59    27    29   ar
    60    27    58    1
    61    28    29   ar
    62    29    59    1
