@<TRIPOS>MOLECULE
IMPHY004417
 31 32 0 0 0
SMALL
GASTEIGER

@<TRIPOS>ATOM
      1 O           6.0290    0.4480    0.0000 O.2     1  UNL1       -0.4217
      2 O           2.5369    0.4827    0.0000 O.3     1  UNL1       -0.5064
      3 O           7.7991    0.4585    0.0000 O.2     1  UNL1       -0.2452
      4 C           4.2690    0.4827    0.0000 C.ar    1  UNL1        0.0406
      5 C           4.2690   -0.5173    0.0000 C.3     1  UNL1       -0.0023
      6 C           5.1350    0.9827    0.0000 C.ar    1  UNL1        0.1460
      7 C           5.1350    1.9827    0.0000 C.ar    1  UNL1        0.0181
      8 C           3.4030    0.9827    0.0000 C.ar    1  UNL1        0.1239
      9 C           3.4030   -1.0173    0.0000 C.2     1  UNL1       -0.0807
     10 C           4.2690    2.4827    0.0000 C.ar    1  UNL1       -0.0476
     11 C           3.4030    1.9827    0.0000 C.ar    1  UNL1       -0.0191
     12 C           3.4030   -2.0173    0.0000 C.2     1  UNL1       -0.0793
     13 C           6.0290    2.5173    0.0000 C.ar    1  UNL1       -0.0443
     14 C           6.9350    2.0035    0.0000 C.ar    1  UNL1        0.0236
     15 C           6.9350    0.9619    0.0000 C.ar    1  UNL1        0.3372
     16 C           2.5369   -2.5173    0.0000 C.3     1  UNL1       -0.0440
     17 C           4.2690   -2.5173    0.0000 C.3     1  UNL1       -0.0440
     18 H           4.4810   -1.0999    0.0000 H       1  UNL1        0.0358
     19 H           4.8796   -0.4097    0.0000 H       1  UNL1        0.0358
     20 H           2.8660   -0.7073    0.0000 H       1  UNL1        0.0575
     21 H           4.2690    3.1027    0.0000 H       1  UNL1        0.0626
     22 H           2.8660    2.2927    0.0000 H       1  UNL1        0.0654
     23 H           6.0218    3.1373    0.0000 H       1  UNL1        0.0627
     24 H           7.4708    2.3156    0.0000 H       1  UNL1        0.0689
     25 H           3.9590   -3.0543    0.0000 H       1  UNL1        0.0274
     26 H           4.8059   -2.8273    0.0000 H       1  UNL1        0.0274
     27 H           2.2269   -1.9804    0.0000 H       1  UNL1        0.0274
     28 H           2.0000   -2.8273    0.0000 H       1  UNL1        0.0274
     29 H           2.8469   -3.0543    0.0000 H       1  UNL1        0.0274
     30 H           4.5790   -1.9804    0.0000 H       1  UNL1        0.0274
     31 H           2.0000    0.7927    0.0000 H       1  UNL1        0.2921
@<TRIPOS>BOND
     1     1     6   ar
     2     1    15   ar
     3     2     8    1
     4     2    31    1
     5     3    15    2
     6     4     5    1
     7     4     6   ar
     8     4     8   ar
     9     5     9    1
    10     5    18    1
    11     5    19    1
    12     6     7   ar
    13     7    10   ar
    14     7    13   ar
    15     8    11   ar
    16     9    12    2
    17     9    20    1
    18    10    11   ar
    19    10    21    1
    20    11    22    1
    21    12    16    1
    22    12    17    1
    23    13    14   ar
    24    13    23    1
    25    14    15   ar
    26    14    24    1
    27    16    27    1
    28    16    28    1
    29    16    29    1
    30    17    25    1
    31    17    26    1
    32    17    30    1
