@<TRIPOS>MOLECULE
IMPHY006553
 40 41 0 0 0
SMALL
GASTEIGER

@<TRIPOS>ATOM
      1 O           4.5981    1.7327    0.0000 O.2     1  UNL1       -0.2965
      2 C           5.4641   -0.7673    0.0000 C.3     1  UNL1       -0.0186
      3 C           5.4641    0.2327    0.0000 C.3     1  UNL1        0.0439
      4 C           4.5981   -1.2673    0.0000 C.3     1  UNL1       -0.0460
      5 C           3.7320    0.2327    0.0000 C.3     1  UNL1        0.0205
      6 C           6.3580   -1.3020    0.0000 C.3     1  UNL1       -0.0432
      7 C           3.7320   -0.7673    0.0000 C.3     1  UNL1       -0.0427
      8 C           4.5981    0.7327    0.0000 C.2     1  UNL1        0.1442
      9 C           6.3580    0.7674    0.0000 C.2     1  UNL1       -0.0659
     10 C           5.4641   -1.7673    0.0000 C.3     1  UNL1       -0.0586
     11 C           7.2641   -0.7881    0.0000 C.3     1  UNL1       -0.0340
     12 C           2.8660    0.7327    0.0000 C.3     1  UNL1       -0.0372
     13 C           7.2641    0.2535    0.0000 C.2     1  UNL1       -0.0843
     14 C           6.3465    1.7673    0.0000 C.3     1  UNL1       -0.0431
     15 C           2.0000    0.2327    0.0000 C.3     1  UNL1       -0.0620
     16 C           2.8660    1.7327    0.0000 C.3     1  UNL1       -0.0620
     17 H           5.4576    1.0827    0.0000 H       1  UNL1        0.0428
     18 H           4.1996   -1.7422    0.0000 H       1  UNL1        0.0271
     19 H           4.9966   -1.7422    0.0000 H       1  UNL1        0.0271
     20 H           3.7320    0.8527    0.0000 H       1  UNL1        0.0380
     21 H           5.9534   -1.7718    0.0000 H       1  UNL1        0.0274
     22 H           6.7517   -1.7810    0.0000 H       1  UNL1        0.0274
     23 H           3.1215   -0.6596    0.0000 H       1  UNL1        0.0272
     24 H           3.5200   -1.3499    0.0000 H       1  UNL1        0.0272
     25 H           4.8441   -1.7673    0.0000 H       1  UNL1        0.0235
     26 H           5.4641   -2.3873    0.0000 H       1  UNL1        0.0235
     27 H           6.0841   -1.7673    0.0000 H       1  UNL1        0.0235
     28 H           7.4732   -1.3718    0.0000 H       1  UNL1        0.0308
     29 H           7.8750   -0.6820    0.0000 H       1  UNL1        0.0308
     30 H           2.8660    0.1127    0.0000 H       1  UNL1        0.0302
     31 H           7.7998    0.5656    0.0000 H       1  UNL1        0.0572
     32 H           6.9664    1.7745    0.0000 H       1  UNL1        0.0275
     33 H           6.3393    2.3873    0.0000 H       1  UNL1        0.0275
     34 H           5.7265    1.7601    0.0000 H       1  UNL1        0.0275
     35 H           3.4860    1.7327    0.0000 H       1  UNL1        0.0233
     36 H           2.8660    2.3527    0.0000 H       1  UNL1        0.0233
     37 H           2.2460    1.7327    0.0000 H       1  UNL1        0.0233
     38 H           1.6900    0.7696    0.0000 H       1  UNL1        0.0233
     39 H           1.4631   -0.0773    0.0000 H       1  UNL1        0.0233
     40 H           2.3100   -0.3042    0.0000 H       1  UNL1        0.0233
@<TRIPOS>BOND
     1     1     8    2
     2     2     3    1
     3     2     4    1
     4     2     6    1
     5     2    10    1
     6     3     8    1
     7     3     9    1
     8     3    17    1
     9     4     7    1
    10     4    18    1
    11     4    19    1
    12     5     7    1
    13     5     8    1
    14     5    12    1
    15     5    20    1
    16     6    11    1
    17     6    21    1
    18     6    22    1
    19     7    23    1
    20     7    24    1
    21     9    13    2
    22     9    14    1
    23    10    25    1
    24    10    26    1
    25    10    27    1
    26    11    13    1
    27    11    28    1
    28    11    29    1
    29    12    15    1
    30    12    16    1
    31    12    30    1
    32    13    31    1
    33    14    32    1
    34    14    33    1
    35    14    34    1
    36    15    38    1
    37    15    39    1
    38    15    40    1
    39    16    35    1
    40    16    36    1
    41    16    37    1
