@<TRIPOS>MOLECULE
IMPHY010348
 41 43 0 0 0
SMALL
GASTEIGER

@<TRIPOS>ATOM
      1 O           6.0682   -0.4995    0.0000 O.3     1  UNL1       -0.4885
      2 O           7.4343    1.8665    0.0000 O.3     1  UNL1       -0.3819
      3 O           6.0682    2.5005    0.0000 O.3     1  UNL1       -0.3721
      4 O           2.5381   -0.5236    0.0000 O.3     1  UNL1       -0.5066
      5 O           7.9343   -2.4636    0.0000 O.3     1  UNL1       -0.5033
      6 O           9.9343   -2.4636    0.0000 O.3     1  UNL1       -0.5033
      7 C           6.9343    1.0005    0.0000 C.3     1  UNL1        0.1338
      8 C           6.0682    1.5005    0.0000 C.3     1  UNL1        0.1187
      9 C           7.9343    1.0005    0.0000 C.3     1  UNL1        0.0074
     10 C           6.9343    0.0005    0.0000 C.3     1  UNL1        0.1213
     11 C           5.2022    1.0005    0.0000 C.ar    1  UNL1        0.0259
     12 C           5.2022    0.0005    0.0000 C.ar    1  UNL1        0.1298
     13 C           8.4343    0.1345    0.0000 C.ar    1  UNL1       -0.0408
     14 C           4.3083    1.5352    0.0000 C.ar    1  UNL1       -0.0491
     15 C           4.3083   -0.5341    0.0000 C.ar    1  UNL1        0.0219
     16 C           7.9343   -0.7315    0.0000 C.ar    1  UNL1       -0.0133
     17 C           9.4343    0.1345    0.0000 C.ar    1  UNL1       -0.0548
     18 C           3.4022    1.0213    0.0000 C.ar    1  UNL1       -0.0196
     19 C           3.4022   -0.0203    0.0000 C.ar    1  UNL1        0.1204
     20 C           5.2022    3.0005    0.0000 C.3     1  UNL1        0.0374
     21 C           8.4343   -1.5976    0.0000 C.ar    1  UNL1        0.1585
     22 C           9.9343   -0.7315    0.0000 C.ar    1  UNL1       -0.0163
     23 C           9.4343   -1.5976    0.0000 C.ar    1  UNL1        0.1582
     24 H           6.6052    1.8105    0.0000 H       1  UNL1        0.0677
     25 H           8.5169    1.2126    0.0000 H       1  UNL1        0.0343
     26 H           7.8266    1.6111    0.0000 H       1  UNL1        0.0343
     27 H           7.1463   -0.5821    0.0000 H       1  UNL1        0.0727
     28 H           7.5449    0.1082    0.0000 H       1  UNL1        0.0727
     29 H           8.0543    1.8665    0.0000 H       1  UNL1        0.2104
     30 H           4.3154    2.1551    0.0000 H       1  UNL1        0.0623
     31 H           4.3154   -1.1541    0.0000 H       1  UNL1        0.0691
     32 H           7.3143   -0.7315    0.0000 H       1  UNL1        0.0658
     33 H           9.7443    0.6714    0.0000 H       1  UNL1        0.0621
     34 H           2.8665    1.3334    0.0000 H       1  UNL1        0.0654
     35 H           5.5122    3.5374    0.0000 H       1  UNL1        0.0524
     36 H           4.6653    3.3105    0.0000 H       1  UNL1        0.0524
     37 H           4.8922    2.4636    0.0000 H       1  UNL1        0.0524
     38 H          10.5543   -0.7315    0.0000 H       1  UNL1        0.0655
     39 H           2.0000   -0.2157    0.0000 H       1  UNL1        0.2921
     40 H           8.2443   -3.0005    0.0000 H       1  UNL1        0.2923
     41 H          10.5543   -2.4636    0.0000 H       1  UNL1        0.2923
@<TRIPOS>BOND
     1     1    10    1
     2     1    12    1
     3     7     2    1
     4     2    29    1
     5     8     3    1
     6     3    20    1
     7     4    19    1
     8     4    39    1
     9     5    21    1
    10     5    40    1
    11     6    23    1
    12     6    41    1
    13     7     8    1
    14     7     9    1
    15     7    10    1
    16     8    11    1
    17     8    24    1
    18     9    13    1
    19     9    25    1
    20     9    26    1
    21    10    27    1
    22    10    28    1
    23    11    12   ar
    24    11    14   ar
    25    12    15   ar
    26    13    16   ar
    27    13    17   ar
    28    14    18   ar
    29    14    30    1
    30    15    19   ar
    31    15    31    1
    32    16    21   ar
    33    16    32    1
    34    17    22   ar
    35    17    33    1
    36    18    19   ar
    37    18    34    1
    38    20    35    1
    39    20    36    1
    40    20    37    1
    41    21    23   ar
    42    22    23   ar
    43    22    38    1
