@<TRIPOS>MOLECULE
IMPHY011620
 98 99 0 0 0
SMALL
GASTEIGER

@<TRIPOS>ATOM
      1 O           3.8660  -10.2500    0.0000 O.3     1  UNL1       -0.3877
      2 O          11.6603   10.2500    0.0000 O.3     1  UNL1       -0.3914
      3 C           3.0000   -7.7500    0.0000 C.3     1  UNL1       -0.0223
      4 C           3.8660   -7.2500    0.0000 C.3     1  UNL1        0.0035
      5 C           3.0000   -8.7500    0.0000 C.3     1  UNL1       -0.0172
      6 C           3.8660   -9.2500    0.0000 C.3     1  UNL1        0.0741
      7 C           4.7320   -7.7500    0.0000 C.2     1  UNL1       -0.0668
      8 C          12.5263    7.7500    0.0000 C.3     1  UNL1       -0.0076
      9 C           2.0000   -7.7500    0.0000 C.3     1  UNL1       -0.0589
     10 C           2.5000   -6.8840    0.0000 C.3     1  UNL1       -0.0589
     11 C          12.5263    8.7500    0.0000 C.3     1  UNL1       -0.0174
     12 C           4.7320   -8.7500    0.0000 C.2     1  UNL1       -0.0563
     13 C          11.6603    9.2500    0.0000 C.3     1  UNL1        0.0597
     14 C          11.6603    7.2500    0.0000 C.2     1  UNL1       -0.0426
     15 C           3.8660   -6.2500    0.0000 C.2     1  UNL1       -0.0762
     16 C          10.7942    8.7500    0.0000 C.3     1  UNL1       -0.0053
     17 C          10.7942    7.7500    0.0000 C.2     1  UNL1       -0.0665
     18 C          13.5263    7.7500    0.0000 C.3     1  UNL1       -0.0557
     19 C          13.0263    6.8840    0.0000 C.3     1  UNL1       -0.0557
     20 C           5.5981   -7.2500    0.0000 C.3     1  UNL1       -0.0431
     21 C           4.7320   -5.7500    0.0000 C.2     1  UNL1       -0.0622
     22 C          11.6603    6.2500    0.0000 C.2     1  UNL1       -0.0579
     23 C           9.9282    7.2500    0.0000 C.3     1  UNL1       -0.0431
     24 C           4.7320   -4.7500    0.0000 C.2     1  UNL1       -0.0507
     25 C          10.7942    5.7500    0.0000 C.2     1  UNL1       -0.0586
     26 C           3.8660   -4.2500    0.0000 C.3     1  UNL1       -0.0397
     27 C          10.7942    4.7500    0.0000 C.2     1  UNL1       -0.0504
     28 C           5.5981   -4.2500    0.0000 C.2     1  UNL1       -0.0588
     29 C          11.6603    4.2500    0.0000 C.3     1  UNL1       -0.0397
     30 C           9.9282    4.2500    0.0000 C.2     1  UNL1       -0.0588
     31 C           5.5981   -3.2500    0.0000 C.2     1  UNL1       -0.0613
     32 C           9.9282    3.2500    0.0000 C.2     1  UNL1       -0.0613
     33 C           6.4641   -2.7500    0.0000 C.2     1  UNL1       -0.0588
     34 C           6.4641   -1.7500    0.0000 C.2     1  UNL1       -0.0504
     35 C           9.0622    2.7500    0.0000 C.2     1  UNL1       -0.0588
     36 C           9.0622    1.7500    0.0000 C.2     1  UNL1       -0.0504
     37 C           5.5981   -1.2500    0.0000 C.3     1  UNL1       -0.0397
     38 C           7.3301   -1.2500    0.0000 C.2     1  UNL1       -0.0588
     39 C           8.1962    1.2500    0.0000 C.2     1  UNL1       -0.0588
     40 C           9.9282    1.2500    0.0000 C.3     1  UNL1       -0.0397
     41 C           7.3301   -0.2500    0.0000 C.2     1  UNL1       -0.0615
     42 C           8.1962    0.2500    0.0000 C.2     1  UNL1       -0.0615
     43 H           4.4030   -6.9400    0.0000 H       1  UNL1        0.0393
     44 H           2.3894   -8.6423    0.0000 H       1  UNL1        0.0299
     45 H           2.7880   -9.3326    0.0000 H       1  UNL1        0.0299
     46 H           4.4030   -9.5600    0.0000 H       1  UNL1        0.0638
     47 H           2.0000   -7.1300    0.0000 H       1  UNL1        0.0235
     48 H           1.3800   -7.7500    0.0000 H       1  UNL1        0.0235
     49 H           2.0000   -8.3700    0.0000 H       1  UNL1        0.0235
     50 H           3.0369   -6.5740    0.0000 H       1  UNL1        0.0235
     51 H           2.1900   -6.3470    0.0000 H       1  UNL1        0.0235
     52 H           1.9631   -7.1940    0.0000 H       1  UNL1        0.0235
     53 H          13.1369    8.6423    0.0000 H       1  UNL1        0.0298
     54 H          12.7383    9.3326    0.0000 H       1  UNL1        0.0298
     55 H           5.2690   -9.0600    0.0000 H       1  UNL1        0.0597
     56 H          12.1972    9.5600    0.0000 H       1  UNL1        0.0596
     57 H           3.3291   -5.9400    0.0000 H       1  UNL1        0.0578
     58 H          10.5822    9.3326    0.0000 H       1  UNL1        0.0335
     59 H          10.1836    8.6423    0.0000 H       1  UNL1        0.0335
     60 H          13.5263    7.1300    0.0000 H       1  UNL1        0.0238
     61 H          14.1463    7.7500    0.0000 H       1  UNL1        0.0238
     62 H          13.5263    8.3700    0.0000 H       1  UNL1        0.0238
     63 H          12.4893    6.5740    0.0000 H       1  UNL1        0.0238
     64 H          13.3363    6.3470    0.0000 H       1  UNL1        0.0238
     65 H          13.5632    7.1940    0.0000 H       1  UNL1        0.0238
     66 H           5.9081   -7.7869    0.0000 H       1  UNL1        0.0275
     67 H           6.1350   -6.9400    0.0000 H       1  UNL1        0.0275
     68 H           5.2881   -6.7131    0.0000 H       1  UNL1        0.0275
     69 H           4.4030  -10.5600    0.0000 H       1  UNL1        0.2102
     70 H           5.2690   -6.0600    0.0000 H       1  UNL1        0.0617
     71 H          12.1972    5.9400    0.0000 H       1  UNL1        0.0621
     72 H           9.6182    7.7869    0.0000 H       1  UNL1        0.0275
     73 H           9.3913    6.9400    0.0000 H       1  UNL1        0.0275
     74 H          10.2382    6.7131    0.0000 H       1  UNL1        0.0275
     75 H          12.1972   10.5600    0.0000 H       1  UNL1        0.2098
     76 H          10.2573    6.0600    0.0000 H       1  UNL1        0.0620
     77 H           4.1760   -3.7131    0.0000 H       1  UNL1        0.0278
     78 H           3.3291   -3.9400    0.0000 H       1  UNL1        0.0278
     79 H           3.5560   -4.7869    0.0000 H       1  UNL1        0.0278
     80 H           6.1350   -4.5600    0.0000 H       1  UNL1        0.0620
     81 H          11.3503    3.7131    0.0000 H       1  UNL1        0.0278
     82 H          12.1972    3.9400    0.0000 H       1  UNL1        0.0278
     83 H          11.9703    4.7869    0.0000 H       1  UNL1        0.0278
     84 H           9.3913    4.5600    0.0000 H       1  UNL1        0.0620
     85 H           5.0611   -2.9400    0.0000 H       1  UNL1        0.0618
     86 H          10.4651    2.9400    0.0000 H       1  UNL1        0.0618
     87 H           7.0010   -3.0600    0.0000 H       1  UNL1        0.0620
     88 H           8.5252    3.0600    0.0000 H       1  UNL1        0.0620
     89 H           5.9081   -0.7131    0.0000 H       1  UNL1        0.0278
     90 H           5.0611   -0.9400    0.0000 H       1  UNL1        0.0278
     91 H           5.2881   -1.7869    0.0000 H       1  UNL1        0.0278
     92 H           7.8671   -1.5600    0.0000 H       1  UNL1        0.0620
     93 H           7.6592    1.5600    0.0000 H       1  UNL1        0.0620
     94 H           9.6182    0.7131    0.0000 H       1  UNL1        0.0278
     95 H          10.4651    0.9400    0.0000 H       1  UNL1        0.0278
     96 H          10.2382    1.7869    0.0000 H       1  UNL1        0.0278
     97 H           6.7932    0.0600    0.0000 H       1  UNL1        0.0618
     98 H           8.7331   -0.0600    0.0000 H       1  UNL1        0.0618
@<TRIPOS>BOND
     1     6     1    1
     2     1    69    1
     3    13     2    1
     4     2    75    1
     5     3     4    1
     6     3     5    1
     7     3     9    1
     8     3    10    1
     9     4     7    1
    10     4    15    1
    11     4    43    1
    12     5     6    1
    13     5    44    1
    14     5    45    1
    15     6    12    1
    16     6    46    1
    17     7    12    2
    18     7    20    1
    19     8    11    1
    20     8    14    1
    21     8    18    1
    22     8    19    1
    23     9    47    1
    24     9    48    1
    25     9    49    1
    26    10    50    1
    27    10    51    1
    28    10    52    1
    29    11    13    1
    30    11    53    1
    31    11    54    1
    32    12    55    1
    33    13    16    1
    34    13    56    1
    35    14    17    2
    36    14    22    1
    37    15    21    2
    38    15    57    1
    39    16    17    1
    40    16    58    1
    41    16    59    1
    42    17    23    1
    43    18    60    1
    44    18    61    1
    45    18    62    1
    46    19    63    1
    47    19    64    1
    48    19    65    1
    49    20    66    1
    50    20    67    1
    51    20    68    1
    52    21    24    1
    53    21    70    1
    54    22    25    2
    55    22    71    1
    56    23    72    1
    57    23    73    1
    58    23    74    1
    59    24    26    1
    60    24    28    2
    61    25    27    1
    62    25    76    1
    63    26    77    1
    64    26    78    1
    65    26    79    1
    66    27    29    1
    67    27    30    2
    68    28    31    1
    69    28    80    1
    70    29    81    1
    71    29    82    1
    72    29    83    1
    73    30    32    1
    74    30    84    1
    75    31    33    2
    76    31    85    1
    77    32    35    2
    78    32    86    1
    79    33    34    1
    80    33    87    1
    81    34    37    1
    82    34    38    2
    83    35    36    1
    84    35    88    1
    85    36    39    2
    86    36    40    1
    87    37    89    1
    88    37    90    1
    89    37    91    1
    90    38    41    1
    91    38    92    1
    92    39    42    1
    93    39    93    1
    94    40    94    1
    95    40    95    1
    96    40    96    1
    97    41    42    2
    98    41    97    1
    99    42    98    1
