@<TRIPOS>MOLECULE
IMPHY001143
 144 151 0 0 0
SMALL
GASTEIGER

@<TRIPOS>ATOM
      1 O          18.6473    2.3051    0.0000 O.3     1  UNL1       -0.3875
      2 O          17.7678   -1.1916    0.0000 O.3     1  UNL1       -0.4572
      3 O          18.6731    3.3364    0.0000 O.3     1  UNL1       -0.3874
      4 O          20.8693   -1.1650    0.0000 O.3     1  UNL1       -0.4615
      5 O          13.2583    3.3782    0.0000 O.3     1  UNL1       -0.3477
      6 O          16.0358   -1.1849    0.0000 O.2     1  UNL1       -0.2450
      7 O          11.5263    3.3782    0.0000 O.3     1  UNL1       -0.3456
      8 O          20.5056   -2.8584    0.0000 O.2     1  UNL1       -0.2512
      9 O          11.5263    0.3782    0.0000 O.3     1  UNL1       -0.3770
     10 O           9.7942    1.3782    0.0000 O.3     1  UNL1       -0.3429
     11 O           8.9282    2.8782    0.0000 O.3     1  UNL1       -0.3456
     12 O           6.3301    1.3782    0.0000 O.3     1  UNL1       -0.3770
     13 O           6.3301    3.3782    0.0000 O.3     1  UNL1       -0.3403
     14 O           5.4641    1.8782    0.0000 O.3     1  UNL1       -0.3431
     15 O           4.5981    4.3782    0.0000 O.3     1  UNL1       -0.3841
     16 O           2.8660    3.3782    0.0000 O.3     1  UNL1       -0.3744
     17 O           2.8660    1.3782    0.0000 O.3     1  UNL1       -0.3866
     18 C          18.6396    0.3051    0.0000 C.3     1  UNL1        0.0402
     19 C          18.6435    1.3051    0.0000 C.3     1  UNL1        0.0809
     20 C          17.7794    1.8084    0.0000 C.3     1  UNL1        0.0218
     21 C          16.9114    1.3118    0.0000 C.3     1  UNL1       -0.0205
     22 C          19.5846   -0.0033    0.0000 C.3     1  UNL1        0.0074
     23 C          17.7717   -0.1916    0.0000 C.3     1  UNL1        0.1120
     24 C          16.0034    1.8221    0.0000 C.3     1  UNL1       -0.0075
     25 C          19.5909    1.6062    0.0000 C.3     1  UNL1       -0.0226
     26 C          16.9076    0.3118    0.0000 C.3     1  UNL1       -0.0110
     27 C          20.1714    0.7992    0.0000 C.3     1  UNL1       -0.0435
     28 C          17.7994    2.8499    0.0000 C.3     1  UNL1        0.0793
     29 C          18.6358   -0.6949    0.0000 C.3     1  UNL1       -0.0532
     30 C          15.9994    2.8637    0.0000 C.2     1  UNL1       -0.0624
     31 C          19.8916   -0.9550    0.0000 C.3     1  UNL1        0.1038
     32 C          15.0744    1.2616    0.0000 C.3     1  UNL1       -0.0413
     33 C          16.9035    3.3811    0.0000 C.2     1  UNL1       -0.0557
     34 C          16.0072    0.8221    0.0000 C.3     1  UNL1       -0.0556
     35 C          15.0661    3.4171    0.0000 C.3     1  UNL1       -0.0046
     36 C          14.1285    1.7932    0.0000 C.3     1  UNL1       -0.0254
     37 C          14.1244    2.8782    0.0000 C.3     1  UNL1        0.0654
     38 C          19.2209   -1.6967    0.0000 C.3     1  UNL1       -0.0274
     39 C          16.8999   -1.6882    0.0000 C.2     1  UNL1        0.3395
     40 C          21.1763   -2.1167    0.0000 C.2     1  UNL1        0.3042
     41 C          12.3923    2.8782    0.0000 C.3     1  UNL1        0.1624
     42 C          16.8960   -2.6882    0.0000 C.ar    1  UNL1        0.0590
     43 C          12.3923    1.8782    0.0000 C.3     1  UNL1        0.0272
     44 C          22.1540   -2.3267    0.0000 C.3     1  UNL1        0.0332
     45 C          11.5263    1.3782    0.0000 C.3     1  UNL1        0.0915
     46 C          16.0281   -3.1849    0.0000 C.ar    1  UNL1       -0.0478
     47 C          17.7601   -3.1915    0.0000 C.ar    1  UNL1       -0.0478
     48 C          10.6603    2.8782    0.0000 C.3     1  UNL1        0.0875
     49 C          10.6603    1.8782    0.0000 C.3     1  UNL1        0.1137
     50 C          16.0242   -4.1849    0.0000 C.ar    1  UNL1       -0.0610
     51 C          17.7562   -4.1915    0.0000 C.ar    1  UNL1       -0.0610
     52 C           9.7942    3.3782    0.0000 C.3     1  UNL1       -0.0361
     53 C          16.8883   -4.6882    0.0000 C.ar    1  UNL1       -0.0617
     54 C           8.9282    1.8782    0.0000 C.3     1  UNL1        0.1626
     55 C          12.3923   -0.1218    0.0000 C.3     1  UNL1        0.0369
     56 C           8.0622    1.3782    0.0000 C.3     1  UNL1        0.0272
     57 C           7.1962    1.8782    0.0000 C.3     1  UNL1        0.0915
     58 C           8.0622    3.3782    0.0000 C.3     1  UNL1        0.0875
     59 C           7.1962    2.8782    0.0000 C.3     1  UNL1        0.1138
     60 C           8.0622    4.3782    0.0000 C.3     1  UNL1       -0.0361
     61 C           5.4641    2.8782    0.0000 C.3     1  UNL1        0.1883
     62 C           4.5981    3.3782    0.0000 C.3     1  UNL1        0.1344
     63 C           6.3301    0.3782    0.0000 C.3     1  UNL1        0.0369
     64 C           3.7320    2.8782    0.0000 C.3     1  UNL1        0.1170
     65 C           4.5981    1.3782    0.0000 C.3     1  UNL1        0.0873
     66 C           3.7320    1.8782    0.0000 C.3     1  UNL1        0.1097
     67 C           4.5981    0.3782    0.0000 C.3     1  UNL1       -0.0361
     68 C           2.0000    2.8782    0.0000 C.3     1  UNL1        0.0370
     69 H          18.5204    2.2249    0.0000 H       1  UNL1        0.0360
     70 H          17.6459    0.8839    0.0000 H       1  UNL1        0.0315
     71 H          20.1968   -0.1018    0.0000 H       1  UNL1        0.0344
     72 H          17.2335   -0.4995    0.0000 H       1  UNL1        0.0740
     73 H          20.1294    1.9133    0.0000 H       1  UNL1        0.0293
     74 H          19.3420    2.1740    0.0000 H       1  UNL1        0.0293
     75 H          16.2974    0.4218    0.0000 H       1  UNL1        0.0304
     76 H          16.6933   -0.2700    0.0000 H       1  UNL1        0.0304
     77 H          20.6306    0.3827    0.0000 H       1  UNL1        0.0270
     78 H          20.6338    1.2121    0.0000 H       1  UNL1        0.0270
     79 H          18.3309    2.5306    0.0000 H       1  UNL1        0.0641
     80 H          18.0158   -0.6925    0.0000 H       1  UNL1        0.0237
     81 H          18.6334   -1.3149    0.0000 H       1  UNL1        0.0237
     82 H          19.2558   -0.6973    0.0000 H       1  UNL1        0.0237
     83 H          20.0820   -1.5450    0.0000 H       1  UNL1        0.0734
     84 H          14.6826    0.7811    0.0000 H       1  UNL1        0.0274
     85 H          15.4808    0.7934    0.0000 H       1  UNL1        0.0274
     86 H          16.9082    4.0010    0.0000 H       1  UNL1        0.0597
     87 H          19.1854    2.6130    0.0000 H       1  UNL1        0.2102
     88 H          15.3872    0.8197    0.0000 H       1  UNL1        0.0238
     89 H          16.0096    0.2021    0.0000 H       1  UNL1        0.0238
     90 H          16.6272    0.8245    0.0000 H       1  UNL1        0.0238
     91 H          15.4689    3.8884    0.0000 H       1  UNL1        0.0335
     92 H          14.6706    3.8946    0.0000 H       1  UNL1        0.0335
     93 H          13.5173    1.8969    0.0000 H       1  UNL1        0.0290
     94 H          13.9217    1.2087    0.0000 H       1  UNL1        0.0290
     95 H          13.5880    2.5672    0.0000 H       1  UNL1        0.0600
     96 H          18.7611   -1.2809    0.0000 H       1  UNL1        0.0265
     97 H          18.8051   -2.1566    0.0000 H       1  UNL1        0.0265
     98 H          19.6808   -2.1126    0.0000 H       1  UNL1        0.0265
     99 H          18.6826    3.9564    0.0000 H       1  UNL1        0.2102
    100 H          12.9292    2.5682    0.0000 H       1  UNL1        0.0910
    101 H          12.6044    1.2956    0.0000 H       1  UNL1        0.0340
    102 H          13.0029    1.9858    0.0000 H       1  UNL1        0.0340
    103 H          22.0239   -2.9329    0.0000 H       1  UNL1        0.0342
    104 H          22.7602   -2.4569    0.0000 H       1  UNL1        0.0342
    105 H          22.2842   -1.7205    0.0000 H       1  UNL1        0.0342
    106 H          10.9893    1.0682    0.0000 H       1  UNL1        0.0624
    107 H          15.4923   -2.8728    0.0000 H       1  UNL1        0.0626
    108 H          18.2982   -2.8836    0.0000 H       1  UNL1        0.0626
    109 H          10.6603    3.4982    0.0000 H       1  UNL1        0.0621
    110 H          10.1233    2.1882    0.0000 H       1  UNL1        0.0649
    111 H          15.4861   -4.4928    0.0000 H       1  UNL1        0.0618
    112 H          18.2920   -4.5036    0.0000 H       1  UNL1        0.0618
    113 H          10.1042    3.9151    0.0000 H       1  UNL1        0.0255
    114 H           9.2573    3.6882    0.0000 H       1  UNL1        0.0255
    115 H           9.4842    2.8413    0.0000 H       1  UNL1        0.0255
    116 H          16.8859   -5.3082    0.0000 H       1  UNL1        0.0618
    117 H           8.9282    1.2582    0.0000 H       1  UNL1        0.0910
    118 H          12.0823   -0.6587    0.0000 H       1  UNL1        0.0524
    119 H          12.9292   -0.4318    0.0000 H       1  UNL1        0.0524
    120 H          12.7023    0.4151    0.0000 H       1  UNL1        0.0524
    121 H           7.6636    0.9032    0.0000 H       1  UNL1        0.0340
    122 H           8.4607    0.9032    0.0000 H       1  UNL1        0.0340
    123 H           6.6592    2.1882    0.0000 H       1  UNL1        0.0624
    124 H           8.5991    3.6882    0.0000 H       1  UNL1        0.0621
    125 H           7.1962    3.4982    0.0000 H       1  UNL1        0.0649
    126 H           8.6822    4.3782    0.0000 H       1  UNL1        0.0255
    127 H           8.0622    4.9982    0.0000 H       1  UNL1        0.0255
    128 H           7.4422    4.3782    0.0000 H       1  UNL1        0.0255
    129 H           5.4641    3.4982    0.0000 H       1  UNL1        0.0938
    130 H           4.0611    3.6882    0.0000 H       1  UNL1        0.0671
    131 H           5.7101    0.3782    0.0000 H       1  UNL1        0.0524
    132 H           6.3301   -0.2418    0.0000 H       1  UNL1        0.0524
    133 H           6.9501    0.3782    0.0000 H       1  UNL1        0.0524
    134 H           4.2941    3.4982    0.0000 H       1  UNL1        0.0650
    135 H           5.1350    1.0682    0.0000 H       1  UNL1        0.0621
    136 H           3.7320    1.2582    0.0000 H       1  UNL1        0.0646
    137 H           4.0611    4.6882    0.0000 H       1  UNL1        0.2101
    138 H           3.9781    0.3782    0.0000 H       1  UNL1        0.0255
    139 H           4.5981   -0.2418    0.0000 H       1  UNL1        0.0255
    140 H           5.2181    0.3782    0.0000 H       1  UNL1        0.0255
    141 H           2.8660    0.7582    0.0000 H       1  UNL1        0.2100
    142 H           1.6900    3.4151    0.0000 H       1  UNL1        0.0524
    143 H           1.4631    2.5682    0.0000 H       1  UNL1        0.0524
    144 H           2.3100    2.3413    0.0000 H       1  UNL1        0.0524
@<TRIPOS>BOND
     1    19     1    1
     2     1    87    1
     3    23     2    1
     4     2    39    1
     5     3    28    1
     6     3    99    1
     7     4    31    1
     8     4    40    1
     9    37     5    1
    10    41     5    1
    11     6    39    2
    12     7    41    1
    13     7    48    1
    14     8    40    2
    15    45     9    1
    16     9    55    1
    17    49    10    1
    18    54    10    1
    19    11    54    1
    20    11    58    1
    21    57    12    1
    22    12    63    1
    23    59    13    1
    24    61    13    1
    25    14    61    1
    26    14    65    1
    27    62    15    1
    28    15   137    1
    29    64    16    1
    30    16    68    1
    31    66    17    1
    32    17   141    1
    33    18    19    1
    34    18    22    1
    35    18    23    1
    36    18    29    1
    37    19    20    1
    38    19    25    1
    39    20    21    1
    40    20    28    1
    41    20    69    1
    42    21    24    1
    43    21    26    1
    44    21    70    1
    45    22    27    1
    46    22    31    1
    47    22    71    1
    48    23    26    1
    49    23    72    1
    50    24    30    1
    51    24    32    1
    52    24    34    1
    53    25    27    1
    54    25    73    1
    55    25    74    1
    56    26    75    1
    57    26    76    1
    58    27    77    1
    59    27    78    1
    60    28    33    1
    61    28    79    1
    62    29    80    1
    63    29    81    1
    64    29    82    1
    65    30    33    2
    66    30    35    1
    67    31    38    1
    68    31    83    1
    69    32    36    1
    70    32    84    1
    71    32    85    1
    72    33    86    1
    73    34    88    1
    74    34    89    1
    75    34    90    1
    76    35    37    1
    77    35    91    1
    78    35    92    1
    79    36    37    1
    80    36    93    1
    81    36    94    1
    82    37    95    1
    83    38    96    1
    84    38    97    1
    85    38    98    1
    86    39    42    1
    87    40    44    1
    88    41    43    1
    89    41   100    1
    90    42    46   ar
    91    42    47   ar
    92    43    45    1
    93    43   101    1
    94    43   102    1
    95    44   103    1
    96    44   104    1
    97    44   105    1
    98    45    49    1
    99    45   106    1
   100    46    50   ar
   101    46   107    1
   102    47    51   ar
   103    47   108    1
   104    48    49    1
   105    48    52    1
   106    48   109    1
   107    49   110    1
   108    50    53   ar
   109    50   111    1
   110    51    53   ar
   111    51   112    1
   112    52   113    1
   113    52   114    1
   114    52   115    1
   115    53   116    1
   116    54    56    1
   117    54   117    1
   118    55   118    1
   119    55   119    1
   120    55   120    1
   121    56    57    1
   122    56   121    1
   123    56   122    1
   124    57    59    1
   125    57   123    1
   126    58    59    1
   127    58    60    1
   128    58   124    1
   129    59   125    1
   130    60   126    1
   131    60   127    1
   132    60   128    1
   133    61    62    1
   134    61   129    1
   135    62    64    1
   136    62   130    1
   137    63   131    1
   138    63   132    1
   139    63   133    1
   140    64    66    1
   141    64   134    1
   142    65    66    1
   143    65    67    1
   144    65   135    1
   145    66   136    1
   146    67   138    1
   147    67   139    1
   148    67   140    1
   149    68   142    1
   150    68   143    1
   151    68   144    1
