@<TRIPOS>MOLECULE
IMPHY009866
 25 25 0 0 0
SMALL
GASTEIGER

@<TRIPOS>ATOM
      1 O           3.7320    2.5950    0.0000 O.3     1  UNL1       -0.3944
      2 C           2.8660    1.0950    0.0000 C.3     1  UNL1        0.0045
      3 C           2.8660    0.0950    0.0000 C.ar    1  UNL1       -0.0424
      4 C           3.7320    1.5950    0.0000 C.3     1  UNL1        0.0507
      5 C           2.0000    1.5950    0.0000 C.3     1  UNL1       -0.0563
      6 C           2.0000   -0.4050    0.0000 C.ar    1  UNL1       -0.0580
      7 C           3.7320   -0.4050    0.0000 C.ar    1  UNL1       -0.0580
      8 C           2.8660   -1.9050    0.0000 C.ar    1  UNL1       -0.0504
      9 C           2.0000   -1.4050    0.0000 C.ar    1  UNL1       -0.0586
     10 C           3.7320   -1.4050    0.0000 C.ar    1  UNL1       -0.0586
     11 C           2.8660   -2.9050    0.0000 C.3     1  UNL1       -0.0397
     12 H           2.8660    1.7150    0.0000 H       1  UNL1        0.0368
     13 H           3.9441    1.0124    0.0000 H       1  UNL1        0.0563
     14 H           4.3426    1.7027    0.0000 H       1  UNL1        0.0563
     15 H           2.3100    2.1319    0.0000 H       1  UNL1        0.0236
     16 H           1.4631    1.9050    0.0000 H       1  UNL1        0.0236
     17 H           1.6900    1.0581    0.0000 H       1  UNL1        0.0236
     18 H           1.4631   -0.0950    0.0000 H       1  UNL1        0.0620
     19 H           4.2690   -0.0950    0.0000 H       1  UNL1        0.0620
     20 H           1.4631   -1.7150    0.0000 H       1  UNL1        0.0620
     21 H           4.2690   -1.7150    0.0000 H       1  UNL1        0.0620
     22 H           2.2460   -2.9050    0.0000 H       1  UNL1        0.0278
     23 H           2.8660   -3.5250    0.0000 H       1  UNL1        0.0278
     24 H           3.4860   -2.9050    0.0000 H       1  UNL1        0.0278
     25 H           4.2690    2.9050    0.0000 H       1  UNL1        0.2094
@<TRIPOS>BOND
     1     1     4    1
     2     1    25    1
     3     2     3    1
     4     2     4    1
     5     2     5    1
     6     2    12    1
     7     3     6   ar
     8     3     7   ar
     9     4    13    1
    10     4    14    1
    11     5    15    1
    12     5    16    1
    13     5    17    1
    14     6     9   ar
    15     6    18    1
    16     7    10   ar
    17     7    19    1
    18     8     9   ar
    19     8    10   ar
    20     8    11    1
    21     9    20    1
    22    10    21    1
    23    11    22    1
    24    11    23    1
    25    11    24    1
