@<TRIPOS>MOLECULE
IMPHY012269
 28 27 0 0 0
SMALL
GASTEIGER

@<TRIPOS>ATOM
      1 O           5.1350   -0.5950    0.0000 O.3     1  UNL1       -0.3917
      2 O           2.5369    0.9050    0.0000 O.3     1  UNL1       -0.3949
      3 C           6.0010    0.9050    0.0000 C.3     1  UNL1       -0.0268
      4 C           5.1350    0.4050    0.0000 C.3     1  UNL1        0.0573
      5 C           6.8671    0.4050    0.0000 C.3     1  UNL1       -0.0507
      6 C           7.7331    0.9050    0.0000 C.3     1  UNL1       -0.0532
      7 C           4.2690    0.9050    0.0000 C.3     1  UNL1       -0.0036
      8 C           8.5991    0.4050    0.0000 C.3     1  UNL1       -0.0559
      9 C           3.4030    0.4050    0.0000 C.3     1  UNL1        0.0465
     10 C           9.4651    0.9050    0.0000 C.3     1  UNL1       -0.0653
     11 H           6.3996    1.3800    0.0000 H       1  UNL1        0.0290
     12 H           5.6025    1.3800    0.0000 H       1  UNL1        0.0290
     13 H           5.6720    0.0950    0.0000 H       1  UNL1        0.0594
     14 H           6.4685   -0.0699    0.0000 H       1  UNL1        0.0266
     15 H           7.2656   -0.0699    0.0000 H       1  UNL1        0.0266
     16 H           8.1316    1.3800    0.0000 H       1  UNL1        0.0265
     17 H           7.3346    1.3800    0.0000 H       1  UNL1        0.0265
     18 H           4.6675    1.3800    0.0000 H       1  UNL1        0.0312
     19 H           3.8705    1.3800    0.0000 H       1  UNL1        0.0312
     20 H           8.2006   -0.0699    0.0000 H       1  UNL1        0.0263
     21 H           8.9976   -0.0699    0.0000 H       1  UNL1        0.0263
     22 H           3.0044   -0.0699    0.0000 H       1  UNL1        0.0558
     23 H           3.8015   -0.0699    0.0000 H       1  UNL1        0.0558
     24 H           9.7751    0.3681    0.0000 H       1  UNL1        0.0230
     25 H          10.0021    1.2150    0.0000 H       1  UNL1        0.0230
     26 H           9.1551    1.4419    0.0000 H       1  UNL1        0.0230
     27 H           4.5981   -0.9050    0.0000 H       1  UNL1        0.2098
     28 H           2.0000    0.5950    0.0000 H       1  UNL1        0.2094
@<TRIPOS>BOND
     1     1     4    1
     2     1    27    1
     3     2     9    1
     4     2    28    1
     5     3     4    1
     6     3     5    1
     7     3    11    1
     8     3    12    1
     9     4     7    1
    10     4    13    1
    11     5     6    1
    12     5    14    1
    13     5    15    1
    14     6     8    1
    15     6    16    1
    16     6    17    1
    17     7     9    1
    18     7    18    1
    19     7    19    1
    20     8    10    1
    21     8    20    1
    22     8    21    1
    23     9    22    1
    24     9    23    1
    25    10    24    1
    26    10    25    1
    27    10    26    1
