@<TRIPOS>MOLECULE
IMPHY012844
 99 104 0 0 0
SMALL
GASTEIGER

@<TRIPOS>ATOM
      1 O           6.8117    0.3677    0.0000 O.3     1  UNL1       -0.4607
      2 O          10.9848    5.7178    0.0000 O.3     1  UNL1       -0.3912
      3 O           3.8493   -0.4683    0.0000 O.3     1  UNL1       -0.4802
      4 O           5.5813   -0.4816    0.0000 O.2     1  UNL1       -0.2504
      5 O           8.4393   -0.2247    0.0000 O.2     1  UNL1       -0.2456
      6 O           6.3872   -5.8629    0.0000 O.3     1  UNL1       -0.5068
      7 C           7.3770    2.5734    0.0000 C.3     1  UNL1       -0.0160
      8 C           7.3770    3.5734    0.0000 C.3     1  UNL1       -0.0256
      9 C           8.2709    4.1081    0.0000 C.3     1  UNL1       -0.0250
     10 C           6.5109    2.0734    0.0000 C.3     1  UNL1        0.0318
     11 C           9.1770    3.5942    0.0000 C.3     1  UNL1       -0.0278
     12 C           8.2709    2.0388    0.0000 C.3     1  UNL1       -0.0461
     13 C           5.6449    2.5734    0.0000 C.2     1  UNL1       -0.0591
     14 C           9.1770    2.5526    0.0000 C.3     1  UNL1       -0.0486
     15 C          10.1208    4.1295    0.0000 C.3     1  UNL1       -0.0056
     16 C           4.7349    2.0666    0.0000 C.3     1  UNL1       -0.0007
     17 C           6.5109    4.0734    0.0000 C.3     1  UNL1       -0.0306
     18 C           6.5270    1.0319    0.0000 C.3     1  UNL1       -0.0390
     19 C           8.2458    5.1928    0.0000 C.3     1  UNL1       -0.0447
     20 C           4.7269    1.0250    0.0000 C.3     1  UNL1        0.0743
     21 C           5.6290    0.5042    0.0000 C.3     1  UNL1       -0.0358
     22 C           7.7191    1.6338    0.0000 C.3     1  UNL1       -0.0584
     23 C           5.6449    3.5734    0.0000 C.2     1  UNL1       -0.0835
     24 C          10.1208    5.2145    0.0000 C.3     1  UNL1        0.0606
     25 C           7.4010    4.6014    0.0000 C.3     1  UNL1       -0.0590
     26 C           7.1537    1.3074    0.0000 C.3     1  UNL1        0.1025
     27 C           9.1770    5.7497    0.0000 C.3     1  UNL1       -0.0258
     28 C           3.8081    2.6307    0.0000 C.3     1  UNL1       -0.0337
     29 C           3.7914    0.4753    0.0000 C.3     1  UNL1       -0.0364
     30 C           2.8602    2.1027    0.0000 C.3     1  UNL1       -0.0407
     31 C          11.1207    4.1256    0.0000 C.3     1  UNL1       -0.0572
     32 C          10.6174    3.2615    0.0000 C.3     1  UNL1       -0.0572
     33 C           2.8518    1.0178    0.0000 C.3     1  UNL1       -0.0492
     34 C           4.7192    0.0250    0.0000 C.2     1  UNL1        0.3115
     35 C           3.8273    3.6305    0.0000 C.3     1  UNL1       -0.0616
     36 C           2.0000    2.6127    0.0000 C.3     1  UNL1       -0.0622
     37 C           7.4545   -0.3984    0.0000 C.2     1  UNL1        0.3320
     38 C           7.1125   -1.3380    0.0000 C.2     1  UNL1        0.0231
     39 C           7.7553   -2.1041    0.0000 C.2     1  UNL1       -0.0478
     40 C           7.4132   -3.0438    0.0000 C.ar    1  UNL1       -0.0246
     41 C           8.0560   -3.8098    0.0000 C.ar    1  UNL1       -0.0511
     42 C           6.4284   -3.2174    0.0000 C.ar    1  UNL1       -0.0511
     43 C           7.7140   -4.7495    0.0000 C.ar    1  UNL1       -0.0196
     44 C           6.0864   -4.1571    0.0000 C.ar    1  UNL1       -0.0196
     45 C           6.7292   -4.9232    0.0000 C.ar    1  UNL1        0.1169
     46 H           7.9163    3.2676    0.0000 H       1  UNL1        0.0315
     47 H           9.7127    3.2822    0.0000 H       1  UNL1        0.0312
     48 H           7.8663    1.5690    0.0000 H       1  UNL1        0.0271
     49 H           8.6645    1.5598    0.0000 H       1  UNL1        0.0271
     50 H           9.3860    1.9689    0.0000 H       1  UNL1        0.0268
     51 H           9.7878    2.6587    0.0000 H       1  UNL1        0.0268
     52 H           4.7513    2.9164    0.0000 H       1  UNL1        0.0359
     53 H           6.9095    4.5484    0.0000 H       1  UNL1        0.0310
     54 H           6.1124    4.5484    0.0000 H       1  UNL1        0.0310
     55 H           6.7450    0.4515    0.0000 H       1  UNL1        0.0275
     56 H           7.1361    1.1474    0.0000 H       1  UNL1        0.0275
     57 H           8.0233    5.7715    0.0000 H       1  UNL1        0.0271
     58 H           7.6376    5.0726    0.0000 H       1  UNL1        0.0271
     59 H           5.2316    0.0282    0.0000 H       1  UNL1        0.0276
     60 H           6.0299    0.0313    0.0000 H       1  UNL1        0.0276
     61 H           7.1365    1.4217    0.0000 H       1  UNL1        0.0235
     62 H           7.9312    1.0512    0.0000 H       1  UNL1        0.0235
     63 H           8.3017    1.8459    0.0000 H       1  UNL1        0.0235
     64 H           5.1080    3.8834    0.0000 H       1  UNL1        0.0572
     65 H          10.1172    5.8345    0.0000 H       1  UNL1        0.0599
     66 H           7.6907    0.9974    0.0000 H       1  UNL1        0.0706
     67 H           7.5522    1.7823    0.0000 H       1  UNL1        0.0706
     68 H           7.7069    5.1407    0.0000 H       1  UNL1        0.0235
     69 H           6.8617    4.9072    0.0000 H       1  UNL1        0.0235
     70 H           7.0952    4.0621    0.0000 H       1  UNL1        0.0235
     71 H           9.5706    6.2287    0.0000 H       1  UNL1        0.0290
     72 H           8.7724    6.2195    0.0000 H       1  UNL1        0.0290
     73 H           4.3515    2.9292    0.0000 H       1  UNL1        0.0307
     74 H           3.3942   -0.0007    0.0000 H       1  UNL1        0.0276
     75 H           4.1924    0.0024    0.0000 H       1  UNL1        0.0276
     76 H           2.3203    1.7979    0.0000 H       1  UNL1        0.0301
     77 H          11.1184    3.5056    0.0000 H       1  UNL1        0.0236
     78 H          11.7407    4.1232    0.0000 H       1  UNL1        0.0236
     79 H          11.1231    4.7456    0.0000 H       1  UNL1        0.0236
     80 H          10.0793    2.9536    0.0000 H       1  UNL1        0.0236
     81 H          10.9253    2.7234    0.0000 H       1  UNL1        0.0236
     82 H          11.1555    3.5695    0.0000 H       1  UNL1        0.0236
     83 H           2.2418    1.1286    0.0000 H       1  UNL1        0.0268
     84 H           2.6383    0.4357    0.0000 H       1  UNL1        0.0268
     85 H           4.4472    3.6185    0.0000 H       1  UNL1        0.0233
     86 H           3.8393    4.2504    0.0000 H       1  UNL1        0.0233
     87 H           3.2075    3.6424    0.0000 H       1  UNL1        0.0233
     88 H          10.9825    6.3378    0.0000 H       1  UNL1        0.2098
     89 H           2.3162    3.1460    0.0000 H       1  UNL1        0.0233
     90 H           1.4667    2.9289    0.0000 H       1  UNL1        0.0233
     91 H           1.6838    2.0794    0.0000 H       1  UNL1        0.0233
     92 H           3.8445   -1.0883    0.0000 H       1  UNL1        0.2951
     93 H           6.5019   -1.4457    0.0000 H       1  UNL1        0.0689
     94 H           8.3658   -1.9964    0.0000 H       1  UNL1        0.0626
     95 H           8.6666   -3.7022    0.0000 H       1  UNL1        0.0625
     96 H           6.0299   -2.7425    0.0000 H       1  UNL1        0.0625
     97 H           8.1125   -5.2245    0.0000 H       1  UNL1        0.0654
     98 H           5.4758   -4.2648    0.0000 H       1  UNL1        0.0654
     99 H           6.7857   -6.3378    0.0000 H       1  UNL1        0.2921
@<TRIPOS>BOND
     1     1    26    1
     2     1    37    1
     3    24     2    1
     4     2    88    1
     5     3    34    1
     6     3    92    1
     7     4    34    2
     8     5    37    2
     9     6    45    1
    10     6    99    1
    11     7     8    1
    12     7    10    1
    13     7    12    1
    14     7    22    1
    15     8     9    1
    16     8    17    1
    17     8    46    1
    18     9    11    1
    19     9    19    1
    20     9    25    1
    21    10    13    1
    22    10    18    1
    23    10    26    1
    24    11    14    1
    25    11    15    1
    26    11    47    1
    27    12    14    1
    28    12    48    1
    29    12    49    1
    30    13    16    1
    31    13    23    2
    32    14    50    1
    33    14    51    1
    34    15    24    1
    35    15    31    1
    36    15    32    1
    37    16    20    1
    38    16    28    1
    39    16    52    1
    40    17    23    1
    41    17    53    1
    42    17    54    1
    43    18    21    1
    44    18    55    1
    45    18    56    1
    46    19    27    1
    47    19    57    1
    48    19    58    1
    49    20    21    1
    50    20    29    1
    51    20    34    1
    52    21    59    1
    53    21    60    1
    54    22    61    1
    55    22    62    1
    56    22    63    1
    57    23    64    1
    58    24    27    1
    59    24    65    1
    60    25    68    1
    61    25    69    1
    62    25    70    1
    63    26    66    1
    64    26    67    1
    65    27    71    1
    66    27    72    1
    67    28    30    1
    68    28    35    1
    69    28    73    1
    70    29    33    1
    71    29    74    1
    72    29    75    1
    73    30    33    1
    74    30    36    1
    75    30    76    1
    76    31    77    1
    77    31    78    1
    78    31    79    1
    79    32    80    1
    80    32    81    1
    81    32    82    1
    82    33    83    1
    83    33    84    1
    84    35    85    1
    85    35    86    1
    86    35    87    1
    87    36    89    1
    88    36    90    1
    89    36    91    1
    90    37    38    1
    91    38    39    2
    92    38    93    1
    93    39    40    1
    94    39    94    1
    95    40    41   ar
    96    40    42   ar
    97    41    43   ar
    98    41    95    1
    99    42    44   ar
   100    42    96    1
   101    43    45   ar
   102    43    97    1
   103    44    45   ar
   104    44    98    1
