@<TRIPOS>MOLECULE
IMPHY007510
 53 57 0 0 0
SMALL
GASTEIGER

@<TRIPOS>ATOM
      1 O           8.7144    0.2710    0.0000 O.3     1  UNL1       -0.3712
      2 O           6.4303   -1.7784    0.0000 O.3     1  UNL1       -0.3712
      3 O          12.3617   -0.9130    0.0000 O.3     1  UNL1       -0.4526
      4 O          12.3617   -2.5225    0.0000 O.3     1  UNL1       -0.4526
      5 O           4.6007    2.2193    0.0000 O.3     1  UNL1       -0.4913
      6 O           2.8634   -0.7777    0.0000 O.3     1  UNL1       -0.4913
      7 O           2.8669    1.2223    0.0000 O.3     1  UNL1       -0.4885
      8 C           7.9096   -1.1229    0.0000 C.3     1  UNL1        0.0205
      9 C           7.2418   -0.3786    0.0000 C.3     1  UNL1        0.0205
     10 C           8.8174   -0.7178    0.0000 C.3     1  UNL1        0.0891
     11 C           6.3275   -0.7837    0.0000 C.3     1  UNL1        0.0892
     12 C           7.7425    0.4802    0.0000 C.3     1  UNL1        0.0544
     13 C           7.4081   -1.9880    0.0000 C.3     1  UNL1        0.0544
     14 C           9.6834   -1.2178    0.0000 C.ar    1  UNL1       -0.0149
     15 C           5.4624   -0.2822    0.0000 C.ar    1  UNL1       -0.0114
     16 C          10.5495   -0.7178    0.0000 C.ar    1  UNL1       -0.0105
     17 C           9.6834   -2.2178    0.0000 C.ar    1  UNL1       -0.0524
     18 C           4.5955   -0.7807    0.0000 C.ar    1  UNL1       -0.0104
     19 C           5.4641    0.7178    0.0000 C.ar    1  UNL1       -0.0104
     20 C          11.4155   -1.2178    0.0000 C.ar    1  UNL1        0.1666
     21 C           4.5989    1.2193    0.0000 C.ar    1  UNL1        0.1655
     22 C           3.7303   -0.2792    0.0000 C.ar    1  UNL1        0.1655
     23 C          10.5495   -2.7178    0.0000 C.ar    1  UNL1       -0.0158
     24 C          11.4155   -2.2178    0.0000 C.ar    1  UNL1        0.1662
     25 C           3.7320    0.7208    0.0000 C.ar    1  UNL1        0.2035
     26 C          12.9453   -1.7178    0.0000 C.3     1  UNL1        0.2332
     27 C           5.4676    2.7178    0.0000 C.3     1  UNL1        0.0790
     28 C           2.8617   -1.7777    0.0000 C.3     1  UNL1        0.0790
     29 C           2.0000    0.7238    0.0000 C.3     1  UNL1        0.0791
     30 H           8.4781   -1.7548    0.0000 H       1  UNL1        0.0356
     31 H           6.6749    0.2548    0.0000 H       1  UNL1        0.0356
     32 H           9.3375   -0.3803    0.0000 H       1  UNL1        0.0650
     33 H           5.8070   -1.1205    0.0000 H       1  UNL1        0.0650
     34 H           7.9360    1.0692    0.0000 H       1  UNL1        0.0564
     35 H           7.1771    0.7345    0.0000 H       1  UNL1        0.0564
     36 H           7.2155   -2.5774    0.0000 H       1  UNL1        0.0564
     37 H           7.9741   -2.2412    0.0000 H       1  UNL1        0.0564
     38 H          10.5495   -0.0978    0.0000 H       1  UNL1        0.0659
     39 H           9.1465   -2.5278    0.0000 H       1  UNL1        0.0622
     40 H           4.5944   -1.4007    0.0000 H       1  UNL1        0.0659
     41 H           6.0016    1.0268    0.0000 H       1  UNL1        0.0659
     42 H          10.5495   -3.3378    0.0000 H       1  UNL1        0.0655
     43 H          13.4062   -2.1325    0.0000 H       1  UNL1        0.1166
     44 H          13.4062   -1.3030    0.0000 H       1  UNL1        0.1166
     45 H           5.7766    2.1803    0.0000 H       1  UNL1        0.0660
     46 H           6.0050    3.0268    0.0000 H       1  UNL1        0.0660
     47 H           5.1585    3.2552    0.0000 H       1  UNL1        0.0660
     48 H           2.2417   -1.7767    0.0000 H       1  UNL1        0.0660
     49 H           2.8606   -2.3977    0.0000 H       1  UNL1        0.0660
     50 H           3.4817   -1.7788    0.0000 H       1  UNL1        0.0660
     51 H           1.6909    1.2612    0.0000 H       1  UNL1        0.0660
     52 H           1.4625    0.4147    0.0000 H       1  UNL1        0.0660
     53 H           2.3091    0.1863    0.0000 H       1  UNL1        0.0660
@<TRIPOS>BOND
     1     1    10    1
     2     1    12    1
     3     2    11    1
     4     2    13    1
     5     3    20    1
     6     3    26    1
     7     4    24    1
     8     4    26    1
     9     5    21    1
    10     5    27    1
    11     6    22    1
    12     6    28    1
    13     7    25    1
    14     7    29    1
    15     8     9    1
    16     8    10    1
    17     8    13    1
    18     8    30    1
    19     9    11    1
    20     9    12    1
    21     9    31    1
    22    10    14    1
    23    10    32    1
    24    11    15    1
    25    11    33    1
    26    12    34    1
    27    12    35    1
    28    13    36    1
    29    13    37    1
    30    14    16   ar
    31    14    17   ar
    32    15    18   ar
    33    15    19   ar
    34    16    20   ar
    35    16    38    1
    36    17    23   ar
    37    17    39    1
    38    18    22   ar
    39    18    40    1
    40    19    21   ar
    41    19    41    1
    42    20    24   ar
    43    21    25   ar
    44    22    25   ar
    45    23    24   ar
    46    23    42    1
    47    26    43    1
    48    26    44    1
    49    27    45    1
    50    27    46    1
    51    27    47    1
    52    28    48    1
    53    28    49    1
    54    28    50    1
    55    29    51    1
    56    29    52    1
    57    29    53    1
