@<TRIPOS>MOLECULE
IMPHY004811
 37 39 0 0 0
SMALL
GASTEIGER

@<TRIPOS>ATOM
      1 O           6.0682   -0.6154    0.0000 O.2     1  UNL1       -0.4505
      2 O           7.8003    1.3846    0.0000 O.3     1  UNL1       -0.4883
      3 O           4.3198    2.4192    0.0000 O.3     1  UNL1       -0.5027
      4 O           2.5381    1.4088    0.0000 O.3     1  UNL1       -0.5033
      5 O           6.0682    2.3846    0.0000 O.2     1  UNL1       -0.2830
      6 O          10.3984   -2.1154    0.0000 O.3     1  UNL1       -0.5068
      7 C           5.2022   -0.1154    0.0000 C.ar    1  UNL1        0.1462
      8 C           5.2022    0.8846    0.0000 C.ar    1  UNL1        0.1128
      9 C           4.3083   -0.6501    0.0000 C.ar    1  UNL1       -0.0038
     10 C           6.9343   -0.1154    0.0000 C.ar    1  UNL1        0.1808
     11 C           6.0682    1.3846    0.0000 C.ar    1  UNL1        0.2382
     12 C           6.9343    0.8846    0.0000 C.ar    1  UNL1        0.2107
     13 C           4.3083    1.4193    0.0000 C.ar    1  UNL1        0.1730
     14 C           7.8003   -0.6154    0.0000 C.ar    1  UNL1        0.0213
     15 C           3.4022   -0.1362    0.0000 C.ar    1  UNL1       -0.0101
     16 C           3.4022    0.9054    0.0000 C.ar    1  UNL1        0.1594
     17 C           4.3198   -1.6500    0.0000 C.3     1  UNL1       -0.0361
     18 C           7.8003   -1.6154    0.0000 C.ar    1  UNL1       -0.0475
     19 C           8.6663   -0.1154    0.0000 C.ar    1  UNL1       -0.0475
     20 C           8.6663   -2.1154    0.0000 C.ar    1  UNL1       -0.0195
     21 C           9.5323   -0.6154    0.0000 C.ar    1  UNL1       -0.0195
     22 C           9.5323   -1.6154    0.0000 C.ar    1  UNL1        0.1169
     23 C           7.8003    2.3846    0.0000 C.3     1  UNL1        0.0791
     24 H           2.8665   -0.4483    0.0000 H       1  UNL1        0.0659
     25 H           3.6999   -1.6572    0.0000 H       1  UNL1        0.0279
     26 H           4.3270   -2.2699    0.0000 H       1  UNL1        0.0279
     27 H           4.9398   -1.6428    0.0000 H       1  UNL1        0.0279
     28 H           7.2634   -1.9254    0.0000 H       1  UNL1        0.0626
     29 H           8.6663    0.5046    0.0000 H       1  UNL1        0.0626
     30 H           8.6663   -2.7354    0.0000 H       1  UNL1        0.0654
     31 H          10.0693   -0.3054    0.0000 H       1  UNL1        0.0654
     32 H           3.7865    2.7354    0.0000 H       1  UNL1        0.2923
     33 H           2.0000    1.1008    0.0000 H       1  UNL1        0.2923
     34 H           8.4203    2.3846    0.0000 H       1  UNL1        0.0660
     35 H           7.8003    3.0046    0.0000 H       1  UNL1        0.0660
     36 H           7.1803    2.3846    0.0000 H       1  UNL1        0.0660
     37 H          10.3984   -2.7354    0.0000 H       1  UNL1        0.2921
@<TRIPOS>BOND
     1     1     7   ar
     2     1    10   ar
     3     2    12    1
     4     2    23    1
     5     3    13    1
     6     3    32    1
     7     4    16    1
     8     4    33    1
     9     5    11    2
    10     6    22    1
    11     6    37    1
    12     7     8   ar
    13     7     9   ar
    14     8    11   ar
    15     8    13   ar
    16     9    15   ar
    17     9    17    1
    18    10    12   ar
    19    10    14    1
    20    11    12   ar
    21    13    16   ar
    22    14    18   ar
    23    14    19   ar
    24    15    16   ar
    25    15    24    1
    26    17    25    1
    27    17    26    1
    28    17    27    1
    29    18    20   ar
    30    18    28    1
    31    19    21   ar
    32    19    29    1
    33    20    22   ar
    34    20    30    1
    35    21    22   ar
    36    21    31    1
    37    23    34    1
    38    23    35    1
    39    23    36    1
