@<TRIPOS>MOLECULE
IMPHY003531
 52 55 0 0 0
SMALL
GASTEIGER

@<TRIPOS>ATOM
      1 O           6.6847    0.4260    0.0000 O.3     1  UNL1       -0.4585
      2 O           5.7110   -1.0859    0.0000 O.2     1  UNL1       -0.2498
      3 O           4.6497   -1.9050    0.0000 O.3     1  UNL1       -0.5031
      4 O           2.8680   -0.8945    0.0000 O.3     1  UNL1       -0.5031
      5 N           6.3981    2.1296    0.0000 N.3     1  UNL1       -0.3207
      6 C           7.2641   -0.3704    0.0000 C.3     1  UNL1        0.0230
      7 C           6.3981   -0.8704    0.0000 C.3     1  UNL1        0.1030
      8 C           8.1741   -0.8772    0.0000 C.3     1  UNL1       -0.0273
      9 C           7.2641    0.6296    0.0000 C.3     1  UNL1        0.1268
     10 C           6.3820   -1.9119    0.0000 C.3     1  UNL1       -0.0326
     11 C           8.1821   -1.9188    0.0000 C.3     1  UNL1       -0.0474
     12 C           5.5320   -0.3704    0.0000 C.ar    1  UNL1        0.0197
     13 C           6.3981    1.1296    0.0000 C.3     1  UNL1        0.0687
     14 C           7.2800   -2.4396    0.0000 C.3     1  UNL1       -0.0512
     15 C           6.2847   -0.2668    0.0000 C.2     1  UNL1        0.3186
     16 C           5.5320    0.6296    0.0000 C.ar    1  UNL1       -0.0189
     17 C           9.1740   -0.8657    0.0000 C.3     1  UNL1       -0.0594
     18 C           8.6640   -0.0055    0.0000 C.3     1  UNL1       -0.0594
     19 C           4.6381   -0.9050    0.0000 C.ar    1  UNL1        0.1631
     20 C           4.6381    1.1643    0.0000 C.ar    1  UNL1       -0.0495
     21 C           3.7320    0.6504    0.0000 C.ar    1  UNL1        0.0006
     22 C           3.7320   -0.3912    0.0000 C.ar    1  UNL1        0.1620
     23 C           2.8680    1.1538    0.0000 C.3     1  UNL1       -0.0179
     24 C           2.8718    2.1538    0.0000 C.3     1  UNL1       -0.0585
     25 C           2.0000    0.6571    0.0000 C.3     1  UNL1       -0.0585
     26 H           7.7986   -0.0562    0.0000 H       1  UNL1        0.0356
     27 H           7.8010    0.9396    0.0000 H       1  UNL1        0.0756
     28 H           5.7729   -1.7964    0.0000 H       1  UNL1        0.0279
     29 H           6.1640   -2.4923    0.0000 H       1  UNL1        0.0279
     30 H           8.3957   -2.5009    0.0000 H       1  UNL1        0.0271
     31 H           8.7922   -1.8080    0.0000 H       1  UNL1        0.0271
     32 H           6.9350    1.4396    0.0000 H       1  UNL1        0.0545
     33 H           6.8791   -2.9125    0.0000 H       1  UNL1        0.0266
     34 H           7.6774   -2.9156    0.0000 H       1  UNL1        0.0266
     35 H           9.1812   -1.4856    0.0000 H       1  UNL1        0.0235
     36 H           9.2045   -0.3092    0.0000 H       1  UNL1        0.0235
     37 H           8.9678    0.5350    0.0000 H       1  UNL1        0.0235
     38 H           8.1236    0.2983    0.0000 H       1  UNL1        0.0235
     39 H           9.7940   -0.8585    0.0000 H       1  UNL1        0.0235
     40 H           9.1669   -0.2457    0.0000 H       1  UNL1        0.0235
     41 H           4.6453    1.7842    0.0000 H       1  UNL1        0.0625
     42 H           6.9350    2.4396    0.0000 H       1  UNL1        0.1189
     43 H           5.8611    2.4396    0.0000 H       1  UNL1        0.1189
     44 H           2.3322    1.4659    0.0000 H       1  UNL1        0.0345
     45 H           4.1164   -2.2212    0.0000 H       1  UNL1        0.2923
     46 H           2.8703   -1.5145    0.0000 H       1  UNL1        0.2923
     47 H           3.4918    2.1514    0.0000 H       1  UNL1        0.0235
     48 H           2.8742    2.7738    0.0000 H       1  UNL1        0.0235
     49 H           2.2518    2.1562    0.0000 H       1  UNL1        0.0235
     50 H           1.6921    1.1952    0.0000 H       1  UNL1        0.0235
     51 H           1.4619    0.3492    0.0000 H       1  UNL1        0.0235
     52 H           2.3079    0.1190    0.0000 H       1  UNL1        0.0235
@<TRIPOS>BOND
     1     1     9    1
     2     1    15    1
     3     2    15    2
     4     3    19    1
     5     3    45    1
     6     4    22    1
     7     4    46    1
     8     5    13    1
     9     5    42    1
    10     5    43    1
    11     6     7    1
    12     6     8    1
    13     6     9    1
    14     6    26    1
    15     7    10    1
    16     7    12    1
    17     7    15    1
    18     8    11    1
    19     8    17    1
    20     8    18    1
    21     9    13    1
    22     9    27    1
    23    10    14    1
    24    10    28    1
    25    10    29    1
    26    11    14    1
    27    11    30    1
    28    11    31    1
    29    12    16   ar
    30    12    19   ar
    31    13    16    1
    32    13    32    1
    33    14    33    1
    34    14    34    1
    35    16    20   ar
    36    17    35    1
    37    17    39    1
    38    17    40    1
    39    18    36    1
    40    18    37    1
    41    18    38    1
    42    19    22   ar
    43    20    21   ar
    44    20    41    1
    45    21    22   ar
    46    21    23    1
    47    23    24    1
    48    23    25    1
    49    23    44    1
    50    24    47    1
    51    24    48    1
    52    24    49    1
    53    25    50    1
    54    25    51    1
    55    25    52    1
