@<TRIPOS>MOLECULE
IMPHY003058
 52 56 0 0 0
SMALL
GASTEIGER

@<TRIPOS>ATOM
      1 O           5.1350   -2.6630    0.0000 O.3     1  UNL1       -0.3313
      2 O           6.8671   -2.6630    0.0000 O.3     1  UNL1       -0.4607
      3 O           5.1350   -5.6630    0.0000 O.3     1  UNL1       -0.3864
      4 O           3.4030   -4.6630    0.0000 O.3     1  UNL1       -0.3865
      5 O           6.8671   -4.6630    0.0000 O.3     1  UNL1       -0.3829
      6 O           2.5369   -3.1630    0.0000 O.3     1  UNL1       -0.3924
      7 O           8.6230    0.3995    0.0000 O.2     1  UNL1       -0.4620
      8 O           9.3780    5.0637    0.0000 O.3     1  UNL1       -0.4526
      9 O           7.9873    5.8738    0.0000 O.3     1  UNL1       -0.4526
     10 O           6.0308    1.9095    0.0000 O.2     1  UNL1       -0.2864
     11 C           5.1350   -4.6630    0.0000 C.3     1  UNL1        0.1152
     12 C           4.2690   -4.1630    0.0000 C.3     1  UNL1        0.1120
     13 C           6.0010   -4.1630    0.0000 C.3     1  UNL1        0.1454
     14 C           4.2690   -3.1630    0.0000 C.3     1  UNL1        0.1140
     15 C           6.0010   -3.1630    0.0000 C.3     1  UNL1        0.2308
     16 C           3.4030   -2.6630    0.0000 C.3     1  UNL1        0.0731
     17 C           6.8671   -1.6630    0.0000 C.ar    1  UNL1        0.1275
     18 C           7.7671   -1.1387    0.0000 C.ar    1  UNL1        0.0232
     19 C           5.9670   -1.1387    0.0000 C.ar    1  UNL1       -0.0189
     20 C           7.7551   -0.0972    0.0000 C.ar    1  UNL1        0.1419
     21 C           6.8910    0.4062    0.0000 C.ar    1  UNL1        0.0648
     22 C           5.9790   -0.0972    0.0000 C.ar    1  UNL1       -0.0439
     23 C           6.8948    1.4062    0.0000 C.ar    1  UNL1        0.2001
     24 C           7.7628    1.9028    0.0000 C.ar    1  UNL1        0.0644
     25 C           7.7666    2.9028    0.0000 C.ar    1  UNL1       -0.0076
     26 C           8.6269    1.3995    0.0000 C.ar    1  UNL1        0.1038
     27 C           8.6346    3.3995    0.0000 C.ar    1  UNL1       -0.0082
     28 C           8.6384    4.3994    0.0000 C.ar    1  UNL1        0.1668
     29 C           6.9026    3.4061    0.0000 C.ar    1  UNL1       -0.0501
     30 C           7.7744    4.9028    0.0000 C.ar    1  UNL1        0.1663
     31 C           6.9064    4.4061    0.0000 C.ar    1  UNL1       -0.0156
     32 C           8.9764    5.9730    0.0000 C.3     1  UNL1        0.2332
     33 H           5.6720   -4.9730    0.0000 H       1  UNL1        0.0648
     34 H           4.2690   -4.7830    0.0000 H       1  UNL1        0.0647
     35 H           6.5380   -3.8530    0.0000 H       1  UNL1        0.0683
     36 H           4.2690   -2.5430    0.0000 H       1  UNL1        0.0647
     37 H           6.0010   -2.5430    0.0000 H       1  UNL1        0.1084
     38 H           3.8015   -2.1881    0.0000 H       1  UNL1        0.0584
     39 H           3.0044   -2.1881    0.0000 H       1  UNL1        0.0584
     40 H           4.5981   -5.9730    0.0000 H       1  UNL1        0.2100
     41 H           3.4030   -5.2830    0.0000 H       1  UNL1        0.2100
     42 H           6.8671   -5.2830    0.0000 H       1  UNL1        0.2102
     43 H           2.0000   -2.8530    0.0000 H       1  UNL1        0.2095
     44 H           8.3064   -1.4446    0.0000 H       1  UNL1        0.0691
     45 H           5.4277   -1.4446    0.0000 H       1  UNL1        0.0654
     46 H           5.4470    0.2211    0.0000 H       1  UNL1        0.0627
     47 H           9.1650    1.7074    0.0000 H       1  UNL1        0.1037
     48 H           9.1703    3.0874    0.0000 H       1  UNL1        0.0661
     49 H           6.3644    3.0982    0.0000 H       1  UNL1        0.0625
     50 H           6.3707    4.7182    0.0000 H       1  UNL1        0.0655
     51 H           9.5668    6.1625    0.0000 H       1  UNL1        0.1166
     52 H           8.8500    6.5800    0.0000 H       1  UNL1        0.1166
@<TRIPOS>BOND
     1     1    14    1
     2     1    15    1
     3    15     2    1
     4     2    17    1
     5    11     3    1
     6     3    40    1
     7    12     4    1
     8     4    41    1
     9    13     5    1
    10     5    42    1
    11     6    16    1
    12     6    43    1
    13     7    20   ar
    14     7    26   ar
    15     8    28    1
    16     8    32    1
    17     9    30    1
    18     9    32    1
    19    10    23    2
    20    11    12    1
    21    11    13    1
    22    11    33    1
    23    12    14    1
    24    12    34    1
    25    13    15    1
    26    13    35    1
    27    14    16    1
    28    14    36    1
    29    15    37    1
    30    16    38    1
    31    16    39    1
    32    17    18   ar
    33    17    19   ar
    34    18    20   ar
    35    18    44    1
    36    19    22   ar
    37    19    45    1
    38    20    21   ar
    39    21    22   ar
    40    21    23   ar
    41    22    46    1
    42    23    24   ar
    43    24    25    1
    44    24    26   ar
    45    25    27   ar
    46    25    29   ar
    47    26    47    1
    48    27    28   ar
    49    27    48    1
    50    28    30   ar
    51    29    31   ar
    52    29    49    1
    53    30    31   ar
    54    31    50    1
    55    32    51    1
    56    32    52    1
