@<TRIPOS>MOLECULE
IMPHY006085
 30 33 0 0 0
SMALL
GASTEIGER

@<TRIPOS>ATOM
      1 O           2.0000   -0.2743    0.0000 O.2     1  UNL1       -0.2723
      2 O           3.5450    3.1527    0.0000 O.2     1  UNL1       -0.2878
      3 N           3.7602   -0.4625    0.0000 N.ar    1  UNL1       -0.2785
      4 N           5.3799   -2.5334    0.0000 N.pl3   1  UNL1       -0.3452
      5 C           4.5692   -1.0503    0.0000 C.ar    1  UNL1        0.0702
      6 C           5.3782   -0.4625    0.0000 C.ar    1  UNL1       -0.0114
      7 C           4.4763   -2.0878    0.0000 C.2     1  UNL1        0.0289
      8 C           6.2345   -0.9935    0.0000 C.3     1  UNL1       -0.0095
      9 C           5.0692    0.4886    0.0000 C.ar    1  UNL1        0.0044
     10 C           3.5280   -2.5188    0.0000 C.3     1  UNL1       -0.0044
     11 C           4.0692    0.4886    0.0000 C.ar    1  UNL1        0.0608
     12 C           6.2353   -2.0010    0.0000 C.3     1  UNL1        0.0130
     13 C           2.6853   -1.9065    0.0000 C.3     1  UNL1        0.0322
     14 C           2.8022   -0.8714    0.0000 C.2     1  UNL1        0.2327
     15 C           5.6038    1.3825    0.0000 C.2     1  UNL1       -0.0487
     16 C           3.5345    1.3825    0.0000 C.2     1  UNL1        0.0096
     17 C           5.0900    2.2886    0.0000 C.2     1  UNL1       -0.0142
     18 C           4.0484    2.2886    0.0000 C.2     1  UNL1        0.1810
     19 H           6.8440   -1.1072    0.0000 H       1  UNL1        0.0329
     20 H           6.4586   -0.4154    0.0000 H       1  UNL1        0.0329
     21 H           3.0831   -2.9506    0.0000 H       1  UNL1        0.0331
     22 H           3.8773   -3.0310    0.0000 H       1  UNL1        0.0331
     23 H           6.4604   -2.5787    0.0000 H       1  UNL1        0.0464
     24 H           6.8446   -1.8863    0.0000 H       1  UNL1        0.0464
     25 H           2.0902   -1.7325    0.0000 H       1  UNL1        0.0364
     26 H           2.4121   -2.4630    0.0000 H       1  UNL1        0.0364
     27 H           5.4104   -3.1527    0.0000 H       1  UNL1        0.1458
     28 H           6.2238    1.3753    0.0000 H       1  UNL1        0.0625
     29 H           2.9146    1.3753    0.0000 H       1  UNL1        0.0677
     30 H           5.4021    2.8243    0.0000 H       1  UNL1        0.0656
@<TRIPOS>BOND
     1     1    14    2
     2     2    18    2
     3     3     5   ar
     4     3    11   ar
     5     3    14   am
     6     4     7    1
     7     4    12    1
     8     4    27    1
     9     5     6   ar
    10     5     7    2
    11     6     8    1
    12     6     9   ar
    13     7    10    1
    14     8    12    1
    15     8    19    1
    16     8    20    1
    17     9    11   ar
    18     9    15    1
    19    10    13    1
    20    10    21    1
    21    10    22    1
    22    11    16    2
    23    12    23    1
    24    12    24    1
    25    13    14    1
    26    13    25    1
    27    13    26    1
    28    15    17    2
    29    15    28    1
    30    16    18    1
    31    16    29    1
    32    17    18    1
    33    17    30    1
