@<TRIPOS>MOLECULE
IMPHY010192
 38 40 0 0 0
SMALL
GASTEIGER

@<TRIPOS>ATOM
      1 O           3.7230   -0.4117    0.0000 O.3     1  UNL1       -0.4602
      2 O           8.0559   -0.4918    0.0000 O.2     1  UNL1       -0.2924
      3 O           2.0000    0.0205    0.0000 O.2     1  UNL1       -0.2505
      4 C           5.4786   -0.3379    0.0000 C.3     1  UNL1        0.0277
      5 C           4.3551    1.0709    0.0000 C.3     1  UNL1        0.0094
      6 C           4.5777    0.0960    0.0000 C.3     1  UNL1        0.1137
      7 C           6.3796    0.0960    0.0000 C.3     1  UNL1        0.0340
      8 C           6.6021    1.0709    0.0000 C.3     1  UNL1       -0.0334
      9 C           4.9786    1.8527    0.0000 C.3     1  UNL1       -0.0458
     10 C           5.9786    1.8527    0.0000 C.3     1  UNL1       -0.0494
     11 C           3.3648    1.1574    0.0000 C.3     1  UNL1        0.0598
     12 C           5.6146   -1.3227    0.0000 C.2     1  UNL1       -0.0621
     13 C           7.0647   -0.6243    0.0000 C.2     1  UNL1        0.1600
     14 C           2.9749    0.2430    0.0000 C.2     1  UNL1        0.3106
     15 C           6.5929   -1.4993    0.0000 C.2     1  UNL1       -0.0195
     16 C           7.5770    1.2934    0.0000 C.3     1  UNL1       -0.0617
     17 C           2.8504    2.0150    0.0000 C.3     1  UNL1       -0.0519
     18 C           4.8930   -2.0150    0.0000 C.3     1  UNL1       -0.0430
     19 H           4.7916   -0.8384    0.0000 H       1  UNL1        0.0389
     20 H           4.0200    1.8520    0.0000 H       1  UNL1        0.0344
     21 H           4.6147   -0.7532    0.0000 H       1  UNL1        0.0743
     22 H           7.1993    0.3210    0.0000 H       1  UNL1        0.0390
     23 H           6.8829    1.8732    0.0000 H       1  UNL1        0.0305
     24 H           5.1166    2.4572    0.0000 H       1  UNL1        0.0269
     25 H           4.4200    2.1217    0.0000 H       1  UNL1        0.0269
     26 H           6.5372    2.1217    0.0000 H       1  UNL1        0.0268
     27 H           5.8407    2.4572    0.0000 H       1  UNL1        0.0268
     28 H           3.6936    1.6831    0.0000 H       1  UNL1        0.0415
     29 H           6.8619   -2.0579    0.0000 H       1  UNL1        0.0652
     30 H           7.7150    0.6889    0.0000 H       1  UNL1        0.0233
     31 H           8.1815    1.4314    0.0000 H       1  UNL1        0.0233
     32 H           7.4391    1.8979    0.0000 H       1  UNL1        0.0233
     33 H           3.3821    2.3339    0.0000 H       1  UNL1        0.0238
     34 H           2.5315    2.5467    0.0000 H       1  UNL1        0.0238
     35 H           2.3188    1.6961    0.0000 H       1  UNL1        0.0238
     36 H           4.4638   -1.5676    0.0000 H       1  UNL1        0.0275
     37 H           4.4456   -2.4442    0.0000 H       1  UNL1        0.0275
     38 H           5.3223   -2.4624    0.0000 H       1  UNL1        0.0275
@<TRIPOS>BOND
     1     1     6    1
     2     1    14    1
     3     2    13    2
     4     3    14    2
     5     4     6    1
     6     4     7    1
     7     4    12    1
     8     4    19    1
     9     5     6    1
    10     5     9    1
    11     5    11    1
    12     5    20    1
    13     6    21    1
    14     7     8    1
    15     7    13    1
    16     7    22    1
    17     8    10    1
    18     8    16    1
    19     8    23    1
    20     9    10    1
    21     9    24    1
    22     9    25    1
    23    10    26    1
    24    10    27    1
    25    11    14    1
    26    11    17    1
    27    11    28    1
    28    12    15    2
    29    12    18    1
    30    13    15    1
    31    15    29    1
    32    16    30    1
    33    16    31    1
    34    16    32    1
    35    17    33    1
    36    17    34    1
    37    17    35    1
    38    18    36    1
    39    18    37    1
    40    18    38    1
