@<TRIPOS>MOLECULE
IMPHY004832
 28 30 0 0 0
SMALL
GASTEIGER

@<TRIPOS>ATOM
      1 O           3.8611    0.7076    0.0000 O.2     1  UNL1       -0.4353
      2 O           4.6701   -3.8802    0.0000 O.3     1  UNL1       -0.5068
      3 N           5.1701    1.6586    0.0000 N.ar    1  UNL1       -0.2168
      4 N           2.0000    3.1721    0.0000 N.ar    1  UNL1       -0.2625
      5 C           4.6701   -0.8802    0.0000 C.ar    1  UNL1        0.0191
      6 C           4.6701    0.1198    0.0000 C.ar    1  UNL1        0.1556
      7 C           4.1701    1.6586    0.0000 C.ar    1  UNL1        0.2293
      8 C           3.5823    2.4676    0.0000 C.ar    1  UNL1        0.0550
      9 C           3.8041   -1.3802    0.0000 C.ar    1  UNL1       -0.0476
     10 C           5.5361   -1.3802    0.0000 C.ar    1  UNL1       -0.0476
     11 C           5.4791    0.7076    0.0000 C.ar    1  UNL1        0.0743
     12 C           3.8041   -2.3802    0.0000 C.ar    1  UNL1       -0.0195
     13 C           5.5361   -2.3802    0.0000 C.ar    1  UNL1       -0.0195
     14 C           4.6701   -2.8802    0.0000 C.ar    1  UNL1        0.1169
     15 C           3.9890    3.3812    0.0000 C.ar    1  UNL1       -0.0466
     16 C           2.5878    2.3631    0.0000 C.ar    1  UNL1        0.0398
     17 C           3.4013    4.1902    0.0000 C.ar    1  UNL1       -0.0429
     18 C           2.4067    4.0857    0.0000 C.ar    1  UNL1        0.0276
     19 H           3.2671   -1.0702    0.0000 H       1  UNL1        0.0626
     20 H           6.0730   -1.0702    0.0000 H       1  UNL1        0.0626
     21 H           6.0688    0.5160    0.0000 H       1  UNL1        0.0868
     22 H           3.2671   -2.6902    0.0000 H       1  UNL1        0.0654
     23 H           6.0730   -2.6902    0.0000 H       1  UNL1        0.0654
     24 H           4.6056    3.4460    0.0000 H       1  UNL1        0.0626
     25 H           2.3356    1.7967    0.0000 H       1  UNL1        0.0837
     26 H           3.6534    4.7566    0.0000 H       1  UNL1        0.0633
     27 H           2.0423    4.5873    0.0000 H       1  UNL1        0.0829
     28 H           5.2070   -4.1902    0.0000 H       1  UNL1        0.2921
@<TRIPOS>BOND
     1     1     6   ar
     2     1     7   ar
     3     2    14    1
     4     2    28    1
     5     3     7   ar
     6     3    11   ar
     7     4    16   ar
     8     4    18   ar
     9     5     6    1
    10     5     9   ar
    11     5    10   ar
    12     6    11   ar
    13     7     8    1
    14     8    15   ar
    15     8    16   ar
    16     9    12   ar
    17     9    19    1
    18    10    13   ar
    19    10    20    1
    20    11    21    1
    21    12    14   ar
    22    12    22    1
    23    13    14   ar
    24    13    23    1
    25    15    17   ar
    26    15    24    1
    27    16    25    1
    28    17    18   ar
    29    17    26    1
    30    18    27    1
