@<TRIPOS>MOLECULE
IMPHY004779
 90 95 0 0 0
SMALL
GASTEIGER

@<TRIPOS>ATOM
      1 O           6.8779   -3.6913    0.0000 O.3     1  UNL1       -0.3366
      2 O           5.1459   -1.6913    0.0000 O.3     1  UNL1       -0.3313
      3 O           6.0119   -5.1913    0.0000 O.3     1  UNL1       -0.3461
      4 O           6.8779   -1.6913    0.0000 O.3     1  UNL1       -0.4532
      5 O           5.1459   -4.6913    0.0000 O.3     1  UNL1       -0.3863
      6 O           3.4138   -3.6913    0.0000 O.3     1  UNL1       -0.3865
      7 O           5.1396    5.3813    0.0000 O.3     1  UNL1       -0.3313
      8 O           8.6100   -4.6913    0.0000 O.3     1  UNL1       -0.3841
      9 O           8.6100   -6.6913    0.0000 O.3     1  UNL1       -0.3864
     10 O           6.8779   -7.6913    0.0000 O.3     1  UNL1       -0.3869
     11 O           2.5478   -2.1913    0.0000 O.3     1  UNL1       -0.3924
     12 O           5.9998    3.8780    0.0000 O.3     1  UNL1       -0.4606
     13 O           2.5357    3.8913    0.0000 O.3     1  UNL1       -0.3864
     14 O           2.5434    5.8913    0.0000 O.3     1  UNL1       -0.3865
     15 O           4.2639    2.8847    0.0000 O.3     1  UNL1       -0.3829
     16 O           7.7440    0.8087    0.0000 O.2     1  UNL1       -0.4507
     17 O           5.1473    7.3813    0.0000 O.3     1  UNL1       -0.3924
     18 O           5.1459   -0.6913    0.0000 O.2     1  UNL1       -0.2830
     19 O           4.2417    0.8056    0.0000 O.3     1  UNL1       -0.5058
     20 O          11.2081   -2.1913    0.0000 O.3     1  UNL1       -0.5068
     21 C           6.0119   -3.1913    0.0000 C.3     1  UNL1        0.1519
     22 C           5.1459   -3.6913    0.0000 C.3     1  UNL1        0.1155
     23 C           4.2799   -3.1913    0.0000 C.3     1  UNL1        0.1120
     24 C           4.2799   -2.1913    0.0000 C.3     1  UNL1        0.1140
     25 C           6.0119   -2.1913    0.0000 C.3     1  UNL1        0.2315
     26 C           6.8779   -4.6913    0.0000 C.3     1  UNL1        0.1882
     27 C           7.7440   -5.1913    0.0000 C.3     1  UNL1        0.1341
     28 C           7.7440   -6.1913    0.0000 C.3     1  UNL1        0.1137
     29 C           6.8779   -6.6913    0.0000 C.3     1  UNL1        0.1069
     30 C           3.4138   -1.6913    0.0000 C.3     1  UNL1        0.0731
     31 C           6.0119   -6.1913    0.0000 C.3     1  UNL1        0.0792
     32 C           3.4037    4.3880    0.0000 C.3     1  UNL1        0.1152
     33 C           3.4075    5.3880    0.0000 C.3     1  UNL1        0.1120
     34 C           4.2678    3.8846    0.0000 C.3     1  UNL1        0.1454
     35 C           4.2755    5.8846    0.0000 C.3     1  UNL1        0.1140
     36 C           5.1357    4.3813    0.0000 C.3     1  UNL1        0.2308
     37 C           6.8779   -0.6913    0.0000 C.ar    1  UNL1        0.2138
     38 C           4.2793    6.8846    0.0000 C.3     1  UNL1        0.0731
     39 C           7.7440   -0.1913    0.0000 C.ar    1  UNL1        0.1809
     40 C           6.0119   -0.1913    0.0000 C.ar    1  UNL1        0.2382
     41 C           6.0119    0.8087    0.0000 C.ar    1  UNL1        0.1092
     42 C           5.9960    2.8780    0.0000 C.ar    1  UNL1        0.1310
     43 C           6.8779    1.3087    0.0000 C.ar    1  UNL1        0.1465
     44 C           6.8940    2.3502    0.0000 C.ar    1  UNL1        0.0235
     45 C           5.1019    1.3156    0.0000 C.ar    1  UNL1        0.1348
     46 C           5.0939    2.3572    0.0000 C.ar    1  UNL1        0.0226
     47 C           8.6100   -0.6913    0.0000 C.ar    1  UNL1        0.0213
     48 C           9.4760   -0.1913    0.0000 C.ar    1  UNL1       -0.0475
     49 C           8.6100   -1.6913    0.0000 C.ar    1  UNL1       -0.0475
     50 C          10.3420   -0.6913    0.0000 C.ar    1  UNL1       -0.0195
     51 C           9.4760   -2.1913    0.0000 C.ar    1  UNL1       -0.0195
     52 C          10.3420   -1.6913    0.0000 C.ar    1  UNL1        0.1169
     53 H           6.0119   -3.8113    0.0000 H       1  UNL1        0.0687
     54 H           4.6090   -4.0013    0.0000 H       1  UNL1        0.0648
     55 H           3.7429   -2.8813    0.0000 H       1  UNL1        0.0647
     56 H           4.2799   -1.5713    0.0000 H       1  UNL1        0.0647
     57 H           6.0119   -1.5713    0.0000 H       1  UNL1        0.1084
     58 H           7.4149   -4.3813    0.0000 H       1  UNL1        0.0937
     59 H           8.2809   -5.5013    0.0000 H       1  UNL1        0.0671
     60 H           7.7440   -6.8113    0.0000 H       1  UNL1        0.0647
     61 H           6.3410   -7.0013    0.0000 H       1  UNL1        0.0643
     62 H           3.8124   -1.2163    0.0000 H       1  UNL1        0.0584
     63 H           3.0153   -1.2163    0.0000 H       1  UNL1        0.0584
     64 H           5.4013   -6.0836    0.0000 H       1  UNL1        0.0587
     65 H           5.7999   -6.7739    0.0000 H       1  UNL1        0.0587
     66 H           2.8680    4.7000    0.0000 H       1  UNL1        0.0648
     67 H           3.4099    6.0080    0.0000 H       1  UNL1        0.0647
     68 H           3.7296    3.5767    0.0000 H       1  UNL1        0.0683
     69 H           4.8136    6.1926    0.0000 H       1  UNL1        0.0647
     70 H           5.1333    3.7613    0.0000 H       1  UNL1        0.1084
     71 H           4.6090   -5.0013    0.0000 H       1  UNL1        0.2100
     72 H           3.4138   -4.3113    0.0000 H       1  UNL1        0.2100
     73 H           9.1469   -5.0013    0.0000 H       1  UNL1        0.2101
     74 H           4.0695    7.4680    0.0000 H       1  UNL1        0.0584
     75 H           3.6684    6.7793    0.0000 H       1  UNL1        0.0584
     76 H           8.6100   -7.3113    0.0000 H       1  UNL1        0.2100
     77 H           6.3410   -8.0013    0.0000 H       1  UNL1        0.2100
     78 H           2.0109   -1.8813    0.0000 H       1  UNL1        0.2095
     79 H           2.0000    4.2034    0.0000 H       1  UNL1        0.2100
     80 H           2.5458    6.5113    0.0000 H       1  UNL1        0.2100
     81 H           3.7258    2.5767    0.0000 H       1  UNL1        0.2102
     82 H           7.4345    2.6540    0.0000 H       1  UNL1        0.0691
     83 H           4.5558    2.6651    0.0000 H       1  UNL1        0.0691
     84 H           5.1497    8.0013    0.0000 H       1  UNL1        0.2095
     85 H           9.4760    0.4287    0.0000 H       1  UNL1        0.0626
     86 H           8.0730   -2.0013    0.0000 H       1  UNL1        0.0626
     87 H           3.7012    1.1094    0.0000 H       1  UNL1        0.2922
     88 H          10.8790   -0.3813    0.0000 H       1  UNL1        0.0654
     89 H           9.4760   -2.8113    0.0000 H       1  UNL1        0.0654
     90 H          11.2081   -2.8113    0.0000 H       1  UNL1        0.2921
@<TRIPOS>BOND
     1     1    21    1
     2    26     1    1
     3     2    24    1
     4     2    25    1
     5     3    26    1
     6     3    31    1
     7    25     4    1
     8     4    37    1
     9     5    22    1
    10     5    71    1
    11    23     6    1
    12     6    72    1
    13     7    35    1
    14     7    36    1
    15    27     8    1
    16     8    73    1
    17     9    28    1
    18     9    76    1
    19    29    10    1
    20    10    77    1
    21    11    30    1
    22    11    78    1
    23    36    12    1
    24    12    42    1
    25    32    13    1
    26    13    79    1
    27    33    14    1
    28    14    80    1
    29    15    34    1
    30    15    81    1
    31    16    39   ar
    32    16    43   ar
    33    17    38    1
    34    17    84    1
    35    18    40    2
    36    19    45    1
    37    19    87    1
    38    20    52    1
    39    20    90    1
    40    21    22    1
    41    21    25    1
    42    21    53    1
    43    22    23    1
    44    22    54    1
    45    23    24    1
    46    23    55    1
    47    24    30    1
    48    24    56    1
    49    25    57    1
    50    26    27    1
    51    26    58    1
    52    27    28    1
    53    27    59    1
    54    28    29    1
    55    28    60    1
    56    29    31    1
    57    29    61    1
    58    30    62    1
    59    30    63    1
    60    31    64    1
    61    31    65    1
    62    32    33    1
    63    32    34    1
    64    32    66    1
    65    33    35    1
    66    33    67    1
    67    34    36    1
    68    34    68    1
    69    35    38    1
    70    35    69    1
    71    36    70    1
    72    37    39   ar
    73    37    40   ar
    74    38    74    1
    75    38    75    1
    76    39    47    1
    77    40    41   ar
    78    41    43   ar
    79    41    45   ar
    80    42    44   ar
    81    42    46   ar
    82    43    44   ar
    83    44    82    1
    84    45    46   ar
    85    46    83    1
    86    47    48   ar
    87    47    49   ar
    88    48    50   ar
    89    48    85    1
    90    49    51   ar
    91    49    86    1
    92    50    52   ar
    93    50    88    1
    94    51    52   ar
    95    51    89    1
