@<TRIPOS>MOLECULE
IMPHY003099
 34 35 0 0 0
SMALL
GASTEIGER

@<TRIPOS>ATOM
      1 F           8.9923   -2.2078    0.0000 F       1  UNL1       -0.1644
      2 F           8.6315   -0.8404    0.0000 F       1  UNL1       -0.1644
      3 F           7.6249   -2.5686    0.0000 F       1  UNL1       -0.1644
      4 O           4.5981    1.3196    0.0000 O.3     1  UNL1       -0.4884
      5 O           4.5981   -2.6803    0.0000 O.3     1  UNL1       -0.4927
      6 O           2.0000   -0.1803    0.0000 O.co2   1  UNL1       -0.5759
      7 O           2.8660    1.3196    0.0000 O.2     1  UNL1        0.0416
      8 O           7.1951    2.8642    0.0000 O.2     1  UNL1       -0.4092
      9 N           6.3580   -1.7150    0.0000 N.ar    1  UNL1       -0.2389
     10 N           2.8660    0.3197    0.0000 N.pl3   1  UNL1        0.0836
     11 N           7.2067    1.8642    0.0000 N.2     1  UNL1       -0.0950
     12 C           5.4641   -0.1803    0.0000 C.ar    1  UNL1        0.0611
     13 C           5.4641   -1.1804    0.0000 C.ar    1  UNL1        0.1176
     14 C           4.5981    0.3197    0.0000 C.ar    1  UNL1        0.2074
     15 C           6.3580    0.3543    0.0000 C.ar    1  UNL1        0.0112
     16 C           4.5981   -1.6804    0.0000 C.ar    1  UNL1        0.1526
     17 C           3.7320   -0.1803    0.0000 C.ar    1  UNL1        0.3184
     18 C           3.7320   -1.1804    0.0000 C.ar    1  UNL1        0.0632
     19 C           7.2641   -1.2012    0.0000 C.ar    1  UNL1        0.1450
     20 C           7.2641   -0.1595    0.0000 C.ar    1  UNL1       -0.0222
     21 C           8.1282   -1.7045    0.0000 C.3     1  UNL1        0.4343
     22 C           6.3465    1.3542    0.0000 C.2     1  UNL1        0.0742
     23 C           3.7320    1.8196    0.0000 C.3     1  UNL1        0.0791
     24 C           3.7320   -3.1803    0.0000 C.3     1  UNL1        0.0789
     25 H           3.1951   -1.4904    0.0000 H       1  UNL1        0.0724
     26 H           7.7998    0.1525    0.0000 H       1  UNL1        0.0645
     27 H           5.8060    1.6580    0.0000 H       1  UNL1        0.0869
     28 H           4.0420    2.3566    0.0000 H       1  UNL1        0.0660
     29 H           3.1951    2.1296    0.0000 H       1  UNL1        0.0660
     30 H           3.4220    1.2827    0.0000 H       1  UNL1        0.0660
     31 H           3.4220   -2.6434    0.0000 H       1  UNL1        0.0660
     32 H           3.1951   -3.4904    0.0000 H       1  UNL1        0.0660
     33 H           4.0420   -3.7173    0.0000 H       1  UNL1        0.0660
     34 H           7.7284    3.1803    0.0000 H       1  UNL1        0.3278
@<TRIPOS>UNITY_ATOM_ATTR
6 1
charge -1
10 1
charge 1
@<TRIPOS>BOND
     1     1    21    1
     2     2    21    1
     3     3    21    1
     4     4    14    1
     5     4    23    1
     6     5    16    1
     7     5    24    1
     8     6    10    1
     9     7    10    2
    10     8    11    1
    11     8    34    1
    12     9    13   ar
    13     9    19   ar
    14    10    17    1
    15    11    22    2
    16    12    13   ar
    17    12    14   ar
    18    12    15   ar
    19    13    16   ar
    20    14    17   ar
    21    15    20   ar
    22    15    22    1
    23    16    18   ar
    24    17    18   ar
    25    18    25    1
    26    19    20   ar
    27    19    21    1
    28    20    26    1
    29    22    27    1
    30    23    28    1
    31    23    29    1
    32    23    30    1
    33    24    31    1
    34    24    32    1
    35    24    33    1
