@<TRIPOS>MOLECULE
IMPHY008982
 12 12 0 0 0
SMALL
GASTEIGER

@<TRIPOS>ATOM
      1 C           1.5088   -4.1234    0.0000 C.3     1  UNL1        0.0352
      2 C           2.6606   -3.4554    0.0000 C.3     1  UNL1        0.1885
      3 N           3.8124   -2.7931    0.0000 N.3     1  UNL1       -0.1183
      4 C           3.3229   -4.6071    0.0000 C.2     1  UNL1        0.3838
      5 O           2.6606   -5.7589    0.0000 O.co2   1  UNL1       -0.2438
      6 O           4.6532   -4.6071    0.0000 O.co2   1  UNL1       -0.2438
      7 C           1.9926   -2.3036    0.0000 C.ar    1  UNL1        0.0037
      8 C           2.6606   -1.1518    0.0000 C.ar    1  UNL1       -0.0024
      9 C           1.9926    0.0000    0.0000 C.ar    1  UNL1       -0.0003
     10 C           0.6623    0.0000    0.0000 C.ar    1  UNL1       -0.0000
     11 C           0.0000   -1.1518    0.0000 C.ar    1  UNL1       -0.0003
     12 C           0.6623   -2.3036    0.0000 C.ar    1  UNL1       -0.0024
@<TRIPOS>BOND
     1     2     1    1
     2     2     3    1
     3     2     4    1
     4     2     7    1
     5     4     5   ar
     6     4     6   ar
     7     7     8   ar
     8     7    12   ar
     9     8     9   ar
    10     9    10   ar
    11    10    11   ar
    12    11    12   ar
