@<TRIPOS>MOLECULE
IMPHY000278
 24 25 0 0 0
SMALL
GASTEIGER

@<TRIPOS>ATOM
      1 O           5.4920   -0.5520    0.0000 O.2     1  UNL1       -0.4220
      2 O           2.0000   -0.5173    0.0000 O.3     1  UNL1       -0.4947
      3 O           7.2622   -0.5415    0.0000 O.2     1  UNL1       -0.2452
      4 C           4.5981    0.9827    0.0000 C.ar    1  UNL1        0.0181
      5 C           2.8660    0.9827    0.0000 C.ar    1  UNL1       -0.0080
      6 C           4.5981   -0.0173    0.0000 C.ar    1  UNL1        0.1425
      7 C           3.7320    1.4827    0.0000 C.ar    1  UNL1       -0.0447
      8 C           2.8660   -0.0173    0.0000 C.ar    1  UNL1        0.1265
      9 C           3.7320   -0.5173    0.0000 C.ar    1  UNL1        0.0233
     10 C           5.4920    1.5173    0.0000 C.ar    1  UNL1       -0.0443
     11 C           2.0000    1.4827    0.0000 C.3     1  UNL1       -0.0362
     12 C           6.3981    1.0035    0.0000 C.ar    1  UNL1        0.0236
     13 C           6.3981   -0.0381    0.0000 C.ar    1  UNL1        0.3372
     14 C           2.0000   -1.5173    0.0000 C.3     1  UNL1        0.0788
     15 H           3.7320    2.1027    0.0000 H       1  UNL1        0.0628
     16 H           3.7320   -1.1373    0.0000 H       1  UNL1        0.0691
     17 H           5.4848    2.1373    0.0000 H       1  UNL1        0.0627
     18 H           2.3100    2.0196    0.0000 H       1  UNL1        0.0279
     19 H           1.4631    1.7927    0.0000 H       1  UNL1        0.0279
     20 H           1.6900    0.9457    0.0000 H       1  UNL1        0.0279
     21 H           6.9338    1.3156    0.0000 H       1  UNL1        0.0689
     22 H           1.3800   -1.5173    0.0000 H       1  UNL1        0.0660
     23 H           2.0000   -2.1373    0.0000 H       1  UNL1        0.0660
     24 H           2.6200   -1.5173    0.0000 H       1  UNL1        0.0660
@<TRIPOS>BOND
     1     1     6   ar
     2     1    13   ar
     3     2     8    1
     4     2    14    1
     5     3    13    2
     6     4     6   ar
     7     4     7   ar
     8     4    10   ar
     9     5     7   ar
    10     5     8   ar
    11     5    11    1
    12     6     9   ar
    13     7    15    1
    14     8     9   ar
    15     9    16    1
    16    10    12   ar
    17    10    17    1
    18    11    18    1
    19    11    19    1
    20    11    20    1
    21    12    13   ar
    22    12    21    1
    23    14    22    1
    24    14    23    1
    25    14    24    1
