@<TRIPOS>MOLECULE
IMPHY015866
 28 27 0 0 0
SMALL
GASTEIGER

@<TRIPOS>ATOM
      1 O           9.7942    0.2500    0.0000 O.2     1  UNL1       -0.5146
      2 C           4.5981    0.2500    0.0000 C.3     1  UNL1       -0.0531
      3 C           5.4641   -0.2500    0.0000 C.3     1  UNL1       -0.0528
      4 C           3.7320   -0.2500    0.0000 C.3     1  UNL1       -0.0533
      5 C           6.3301    0.2500    0.0000 C.3     1  UNL1       -0.0495
      6 C           2.8660    0.2500    0.0000 C.3     1  UNL1       -0.0559
      7 C           7.1962   -0.2500    0.0000 C.3     1  UNL1       -0.0316
      8 C           2.0000   -0.2500    0.0000 C.3     1  UNL1       -0.0653
      9 C           8.0622    0.2500    0.0000 C.2     1  UNL1       -0.0499
     10 C           8.9282   -0.2500    0.0000 C.2     1  UNL1        0.0769
     11 H           4.9966    0.7249    0.0000 H       1  UNL1        0.0265
     12 H           4.1996    0.7249    0.0000 H       1  UNL1        0.0265
     13 H           5.0656   -0.7249    0.0000 H       1  UNL1        0.0265
     14 H           5.8626   -0.7249    0.0000 H       1  UNL1        0.0265
     15 H           3.3335   -0.7249    0.0000 H       1  UNL1        0.0265
     16 H           4.1306   -0.7249    0.0000 H       1  UNL1        0.0265
     17 H           6.7287    0.7249    0.0000 H       1  UNL1        0.0268
     18 H           5.9316    0.7249    0.0000 H       1  UNL1        0.0268
     19 H           3.2646    0.7249    0.0000 H       1  UNL1        0.0263
     20 H           2.4675    0.7249    0.0000 H       1  UNL1        0.0263
     21 H           6.7976   -0.7249    0.0000 H       1  UNL1        0.0308
     22 H           7.5947   -0.7249    0.0000 H       1  UNL1        0.0308
     23 H           1.6900    0.2869    0.0000 H       1  UNL1        0.0230
     24 H           1.4631   -0.5600    0.0000 H       1  UNL1        0.0230
     25 H           2.3100   -0.7869    0.0000 H       1  UNL1        0.0230
     26 H           8.0622    0.8700    0.0000 H       1  UNL1        0.0602
     27 H           8.9282   -0.8700    0.0000 H       1  UNL1        0.1017
     28 H          10.3312   -0.0600    0.0000 H       1  UNL1        0.2912
@<TRIPOS>BOND
     1     1    10    1
     2     1    28    1
     3     2     3    1
     4     2     4    1
     5     2    11    1
     6     2    12    1
     7     3     5    1
     8     3    13    1
     9     3    14    1
    10     4     6    1
    11     4    15    1
    12     4    16    1
    13     5     7    1
    14     5    17    1
    15     5    18    1
    16     6     8    1
    17     6    19    1
    18     6    20    1
    19     7     9    1
    20     7    21    1
    21     7    22    1
    22     8    23    1
    23     8    24    1
    24     8    25    1
    25     9    10    2
    26     9    26    1
    27    10    27    1
