@<TRIPOS>MOLECULE
IMPHY010275
 29 28 0 0 0
SMALL
GASTEIGER

@<TRIPOS>ATOM
      1 S           4.5981   -0.5000    0.0000 S.3     1  UNL1       -0.0897
      2 S           5.4641   -1.0000    0.0000 S.3     1  UNL1       -0.0887
      3 S           8.9282    1.0000    0.0000 S.O     1  UNL1        0.2038
      4 O           8.0622    0.5000    0.0000 O.2     1  UNL1       -0.4079
      5 O           9.7942    0.5000    0.0000 O.2     1  UNL1       -0.2155
      6 C           3.7320   -1.0000    0.0000 C.3     1  UNL1        0.0124
      7 C           2.8660   -0.5000    0.0000 C.3     1  UNL1       -0.0435
      8 C           3.7320   -2.0000    0.0000 C.3     1  UNL1       -0.0525
      9 C           2.0000   -1.0000    0.0000 C.3     1  UNL1       -0.0643
     10 C           6.3301   -0.5000    0.0000 C.3     1  UNL1        0.0252
     11 C           7.1962   -1.0000    0.0000 C.2     1  UNL1       -0.0375
     12 C           8.0622   -0.5000    0.0000 C.2     1  UNL1        0.1019
     13 C           8.9282    2.0000    0.0000 C.3     1  UNL1        0.0489
     14 H           4.2690   -1.3100    0.0000 H       1  UNL1        0.0417
     15 H           3.2646   -0.0251    0.0000 H       1  UNL1        0.0273
     16 H           2.4675   -0.0251    0.0000 H       1  UNL1        0.0273
     17 H           3.1120   -2.0000    0.0000 H       1  UNL1        0.0241
     18 H           3.7320   -2.6200    0.0000 H       1  UNL1        0.0241
     19 H           4.3520   -2.0000    0.0000 H       1  UNL1        0.0241
     20 H           1.6900   -0.4631    0.0000 H       1  UNL1        0.0230
     21 H           1.4631   -1.3100    0.0000 H       1  UNL1        0.0230
     22 H           2.3100   -1.5369    0.0000 H       1  UNL1        0.0230
     23 H           6.7287   -0.0251    0.0000 H       1  UNL1        0.0428
     24 H           5.9316   -0.0251    0.0000 H       1  UNL1        0.0428
     25 H           7.1962   -1.6200    0.0000 H       1  UNL1        0.0611
     26 H           8.5991   -0.8100    0.0000 H       1  UNL1        0.1036
     27 H           9.5482    2.0000    0.0000 H       1  UNL1        0.0398
     28 H           8.9282    2.6200    0.0000 H       1  UNL1        0.0398
     29 H           8.3082    2.0000    0.0000 H       1  UNL1        0.0398
@<TRIPOS>BOND
     1     1     2    1
     2     1     6    1
     3     2    10    1
     4     3     4    1
     5     3     5    2
     6     3    13    1
     7     4    12    1
     8     6     7    1
     9     6     8    1
    10     6    14    1
    11     7     9    1
    12     7    15    1
    13     7    16    1
    14     8    17    1
    15     8    18    1
    16     8    19    1
    17     9    20    1
    18     9    21    1
    19     9    22    1
    20    10    11    1
    21    10    23    1
    22    10    24    1
    23    11    12    2
    24    11    25    1
    25    12    26    1
    26    13    27    1
    27    13    28    1
    28    13    29    1
