@<TRIPOS>MOLECULE
IMPHY012311
 39 40 0 0 0
SMALL
GASTEIGER

@<TRIPOS>ATOM
      1 O           3.2320   -1.9145    0.0000 O.3     1  UNL1       -0.3763
      2 O           2.0000   -1.0485    0.0000 O.2     1  UNL1       -0.2892
      3 O           7.2622   -1.0727    0.0000 O.3     1  UNL1       -0.4948
      4 C           3.7320   -1.0485    0.0000 C.3     1  UNL1        0.1502
      5 C           4.5981   -0.5485    0.0000 C.ar    1  UNL1        0.0020
      6 C           4.5981    0.4515    0.0000 C.ar    1  UNL1       -0.0147
      7 C           3.7320    0.9515    0.0000 C.2     1  UNL1       -0.0339
      8 C           3.7320    1.9515    0.0000 C.3     1  UNL1       -0.0208
      9 C           2.8660   -0.5485    0.0000 C.2     1  UNL1        0.1919
     10 C           2.8660    0.4515    0.0000 C.2     1  UNL1       -0.0120
     11 C           5.4920   -1.0832    0.0000 C.ar    1  UNL1       -0.0128
     12 C           5.4920    0.9861    0.0000 C.ar    1  UNL1       -0.0476
     13 C           4.2320   -1.9145    0.0000 C.3     1  UNL1       -0.0245
     14 C           6.3981    0.4723    0.0000 C.ar    1  UNL1       -0.0082
     15 C           6.3981   -0.5693    0.0000 C.ar    1  UNL1        0.1234
     16 C           2.8660    2.4515    0.0000 C.3     1  UNL1       -0.0586
     17 C           4.5981    2.4515    0.0000 C.3     1  UNL1       -0.0586
     18 C           7.2622    0.9756    0.0000 C.3     1  UNL1       -0.0362
     19 C           7.2583   -2.0727    0.0000 C.3     1  UNL1        0.0788
     20 H           3.7320    2.5715    0.0000 H       1  UNL1        0.0344
     21 H           2.3291    0.7615    0.0000 H       1  UNL1        0.0656
     22 H           5.4848   -1.7031    0.0000 H       1  UNL1        0.0658
     23 H           5.4848    1.6061    0.0000 H       1  UNL1        0.0627
     24 H           3.6951   -2.2245    0.0000 H       1  UNL1        0.0265
     25 H           4.5420   -2.4515    0.0000 H       1  UNL1        0.0265
     26 H           4.7690   -1.6045    0.0000 H       1  UNL1        0.0265
     27 H           3.1760    2.9884    0.0000 H       1  UNL1        0.0235
     28 H           2.3291    2.7615    0.0000 H       1  UNL1        0.0235
     29 H           2.5560    1.9145    0.0000 H       1  UNL1        0.0235
     30 H           4.9081    1.9145    0.0000 H       1  UNL1        0.0235
     31 H           5.1350    2.7615    0.0000 H       1  UNL1        0.0235
     32 H           4.2881    2.9884    0.0000 H       1  UNL1        0.0235
     33 H           3.5420   -2.4515    0.0000 H       1  UNL1        0.2112
     34 H           7.5742    0.4399    0.0000 H       1  UNL1        0.0279
     35 H           7.7979    1.2877    0.0000 H       1  UNL1        0.0279
     36 H           6.9501    1.5114    0.0000 H       1  UNL1        0.0279
     37 H           6.6383   -2.0703    0.0000 H       1  UNL1        0.0660
     38 H           7.2559   -2.6927    0.0000 H       1  UNL1        0.0660
     39 H           7.8783   -2.0750    0.0000 H       1  UNL1        0.0660
@<TRIPOS>BOND
     1     4     1    1
     2     1    33    1
     3     2     9    2
     4     3    15    1
     5     3    19    1
     6     4     5    1
     7     4     9    1
     8     4    13    1
     9     5     6   ar
    10     5    11   ar
    11     6     7    1
    12     6    12   ar
    13     7     8    1
    14     7    10    2
    15     8    16    1
    16     8    17    1
    17     8    20    1
    18     9    10    1
    19    10    21    1
    20    11    15   ar
    21    11    22    1
    22    12    14   ar
    23    12    23    1
    24    13    24    1
    25    13    25    1
    26    13    26    1
    27    14    15   ar
    28    14    18    1
    29    16    27    1
    30    16    28    1
    31    16    29    1
    32    17    30    1
    33    17    31    1
    34    17    32    1
    35    18    34    1
    36    18    35    1
    37    18    36    1
    38    19    37    1
    39    19    38    1
    40    19    39    1
