@<TRIPOS>MOLECULE
IMPHY004482
 30 32 0 0 0
SMALL
GASTEIGER

@<TRIPOS>ATOM
      1 O           7.8167    1.8592    0.0000 O.3     1  UNL1       -0.5056
      2 O           6.0682    1.8246    0.0000 O.2     1  UNL1       -0.2865
      3 O           6.0682   -2.1754    0.0000 O.2     1  UNL1       -0.2866
      4 O           9.5984   -1.1995    0.0000 O.3     1  UNL1       -0.5064
      5 O           2.5381   -1.1995    0.0000 O.3     1  UNL1       -0.5067
      6 C           6.9343    0.3246    0.0000 C.ar    1  UNL1        0.0749
      7 C           6.9343   -0.6754    0.0000 C.ar    1  UNL1        0.0401
      8 C           5.2022    0.3246    0.0000 C.ar    1  UNL1        0.0334
      9 C           5.2022   -0.6754    0.0000 C.ar    1  UNL1        0.0365
     10 C           6.0682    0.8246    0.0000 C.2     1  UNL1        0.1980
     11 C           6.0682   -1.1754    0.0000 C.2     1  UNL1        0.1948
     12 C           7.8282    0.8593    0.0000 C.ar    1  UNL1        0.1347
     13 C           8.7343    0.3454    0.0000 C.ar    1  UNL1        0.0330
     14 C           7.8282   -1.2100    0.0000 C.ar    1  UNL1       -0.0082
     15 C           8.7343   -0.6962    0.0000 C.ar    1  UNL1        0.1239
     16 C           4.3083   -1.2100    0.0000 C.ar    1  UNL1       -0.0087
     17 C           4.3083    0.8593    0.0000 C.ar    1  UNL1       -0.0468
     18 C           9.5984    0.8488    0.0000 C.3     1  UNL1       -0.0327
     19 C           3.4022   -0.6962    0.0000 C.ar    1  UNL1        0.1176
     20 C           3.4022    0.3454    0.0000 C.ar    1  UNL1       -0.0195
     21 H           7.8210   -1.8300    0.0000 H       1  UNL1        0.0661
     22 H           4.3154   -1.8300    0.0000 H       1  UNL1        0.0661
     23 H           4.3154    1.4792    0.0000 H       1  UNL1        0.0626
     24 H           9.9105    0.3130    0.0000 H       1  UNL1        0.0280
     25 H          10.1341    1.1608    0.0000 H       1  UNL1        0.0280
     26 H           9.2863    1.3845    0.0000 H       1  UNL1        0.0280
     27 H           2.8665    0.6575    0.0000 H       1  UNL1        0.0654
     28 H           8.3500    2.1754    0.0000 H       1  UNL1        0.2922
     29 H           9.5960   -1.8195    0.0000 H       1  UNL1        0.2921
     30 H           2.0000   -0.8916    0.0000 H       1  UNL1        0.2921
@<TRIPOS>BOND
     1     1    12    1
     2     1    28    1
     3     2    10    2
     4     3    11    2
     5     4    15    1
     6     4    29    1
     7     5    19    1
     8     5    30    1
     9     6     7   ar
    10     6    10    1
    11     6    12   ar
    12     7    11    1
    13     7    14   ar
    14     8     9   ar
    15     8    10    1
    16     8    17   ar
    17     9    11    1
    18     9    16   ar
    19    12    13   ar
    20    13    15   ar
    21    13    18    1
    22    14    15   ar
    23    14    21    1
    24    16    19   ar
    25    16    22    1
    26    17    20   ar
    27    17    23    1
    28    18    24    1
    29    18    25    1
    30    18    26    1
    31    19    20   ar
    32    20    27    1
