@<TRIPOS>MOLECULE
IMPHY002017
 49 51 0 0 0
SMALL
GASTEIGER

@<TRIPOS>ATOM
      1 O           6.0836   -2.1288    0.0000 O.3     1  UNL1       -0.4803
      2 O           5.7730    0.4312    0.0000 O.3     1  UNL1       -0.4522
      3 O           3.5000   -1.3240    0.0000 O.3     1  UNL1       -0.4549
      4 O           7.8798    0.7175    0.0000 O.2     1  UNL1       -0.4216
      5 O           6.9297    1.7204    0.0000 O.2     1  UNL1       -0.2505
      6 O           3.5000   -3.0561    0.0000 O.2     1  UNL1       -0.2511
      7 O           8.7740    2.2452    0.0000 O.2     1  UNL1       -0.2452
      8 C           5.5000   -1.3240    0.0000 C.3     1  UNL1        0.1800
      9 C           4.5000   -1.3240    0.0000 C.3     1  UNL1        0.1482
     10 C           6.0836   -0.5193    0.0000 C.3     1  UNL1        0.1752
     11 C           7.0298   -0.8240    0.0000 C.ar    1  UNL1        0.0810
     12 C           7.0298   -1.8240    0.0000 C.ar    1  UNL1        0.1317
     13 C           4.5000   -2.3240    0.0000 C.3     1  UNL1       -0.0214
     14 C           4.5000   -0.3240    0.0000 C.3     1  UNL1       -0.0214
     15 C           7.8958   -0.3240    0.0000 C.ar    1  UNL1        0.1494
     16 C           7.8958   -2.3240    0.0000 C.ar    1  UNL1       -0.0187
     17 C           8.7619   -0.8240    0.0000 C.ar    1  UNL1        0.0182
     18 C           8.7619   -1.8240    0.0000 C.ar    1  UNL1       -0.0476
     19 C           5.9792    1.4097    0.0000 C.2     1  UNL1        0.3104
     20 C           5.2349    2.0776    0.0000 C.3     1  UNL1        0.0509
     21 C           3.0000   -2.1900    0.0000 C.2     1  UNL1        0.3046
     22 C           9.6719   -0.3172    0.0000 C.ar    1  UNL1       -0.0443
     23 C           8.7778    1.2452    0.0000 C.ar    1  UNL1        0.3372
     24 C           9.6799    0.7244    0.0000 C.ar    1  UNL1        0.0236
     25 C           4.2843    1.7669    0.0000 C.3     1  UNL1       -0.0525
     26 C           5.4411    3.0561    0.0000 C.3     1  UNL1       -0.0525
     27 C           2.0000   -2.1900    0.0000 C.3     1  UNL1        0.0333
     28 H           5.1138   -2.0812    0.0000 H       1  UNL1        0.0815
     29 H           5.4711   -0.4231    0.0000 H       1  UNL1        0.0827
     30 H           3.8800   -2.3240    0.0000 H       1  UNL1        0.0269
     31 H           5.1200   -0.3240    0.0000 H       1  UNL1        0.0269
     32 H           4.5000    0.2960    0.0000 H       1  UNL1        0.0269
     33 H           3.8800   -0.3240    0.0000 H       1  UNL1        0.0269
     34 H           4.5000   -2.9440    0.0000 H       1  UNL1        0.0269
     35 H           5.1200   -2.3240    0.0000 H       1  UNL1        0.0269
     36 H           7.8958   -2.9440    0.0000 H       1  UNL1        0.0654
     37 H           9.2988   -2.1340    0.0000 H       1  UNL1        0.0626
     38 H           5.1070    1.4709    0.0000 H       1  UNL1        0.0408
     39 H          10.2052   -0.6334    0.0000 H       1  UNL1        0.0627
     40 H          10.2180    1.0324    0.0000 H       1  UNL1        0.0689
     41 H           6.0478    2.9282    0.0000 H       1  UNL1        0.0237
     42 H           5.5689    3.6628    0.0000 H       1  UNL1        0.0237
     43 H           4.8344    3.1839    0.0000 H       1  UNL1        0.0237
     44 H           4.0917    2.3562    0.0000 H       1  UNL1        0.0237
     45 H           3.6950    1.5743    0.0000 H       1  UNL1        0.0237
     46 H           4.4770    1.1776    0.0000 H       1  UNL1        0.0237
     47 H           2.0000   -1.5700    0.0000 H       1  UNL1        0.0342
     48 H           1.3800   -2.1900    0.0000 H       1  UNL1        0.0342
     49 H           2.0000   -2.8100    0.0000 H       1  UNL1        0.0342
@<TRIPOS>BOND
     1     1     8    1
     2     1    12    1
     3    10     2    1
     4     2    19    1
     5     3     9    1
     6     3    21    1
     7     4    15   ar
     8     4    23   ar
     9     5    19    2
    10     6    21    2
    11     7    23    2
    12     8     9    1
    13     8    10    1
    14     8    28    1
    15     9    13    1
    16     9    14    1
    17    10    11    1
    18    10    29    1
    19    11    12   ar
    20    11    15   ar
    21    12    16   ar
    22    13    30    1
    23    13    34    1
    24    13    35    1
    25    14    31    1
    26    14    32    1
    27    14    33    1
    28    15    17   ar
    29    16    18   ar
    30    16    36    1
    31    17    18   ar
    32    17    22   ar
    33    18    37    1
    34    19    20    1
    35    20    25    1
    36    20    26    1
    37    20    38    1
    38    21    27    1
    39    22    24   ar
    40    22    39    1
    41    23    24   ar
    42    24    40    1
    43    25    44    1
    44    25    45    1
    45    25    46    1
    46    26    41    1
    47    26    42    1
    48    26    43    1
    49    27    47    1
    50    27    48    1
    51    27    49    1
