@<TRIPOS>MOLECULE
IMPHY011064
 40 42 0 0 0
SMALL
GASTEIGER

@<TRIPOS>ATOM
      1 O           3.7320    2.4508    0.0000 O.2     1  UNL1       -0.2971
      2 C           3.7320   -0.5492    0.0000 C.3     1  UNL1       -0.0146
      3 C           2.8660   -0.0492    0.0000 C.3     1  UNL1       -0.0246
      4 C           2.8658   -1.0496    0.0000 C.3     1  UNL1       -0.0421
      5 C           4.5981   -0.0492    0.0000 C.3     1  UNL1       -0.0190
      6 C           3.7160   -1.5907    0.0000 C.3     1  UNL1       -0.0284
      7 C           2.8660    0.9508    0.0000 C.3     1  UNL1        0.0181
      8 C           5.5081   -0.5560    0.0000 C.3     1  UNL1       -0.0467
      9 C           4.5981    0.9508    0.0000 C.3     1  UNL1        0.0120
     10 C           4.6140   -2.1184    0.0000 C.3     1  UNL1       -0.0473
     11 C           5.5161   -1.5976    0.0000 C.3     1  UNL1       -0.0520
     12 C           3.7320    1.4508    0.0000 C.2     1  UNL1        0.1370
     13 C           5.4641    0.4508    0.0000 C.3     1  UNL1       -0.0586
     14 C           3.2060   -2.4508    0.0000 C.3     1  UNL1       -0.0593
     15 C           2.7724   -1.9218    0.0000 C.3     1  UNL1       -0.0593
     16 C           2.0000    1.4508    0.0000 C.3     1  UNL1       -0.0554
     17 H           2.0160   -0.0490    0.0000 H       1  UNL1        0.0313
     18 H           2.2552   -1.1572    0.0000 H       1  UNL1        0.0274
     19 H           3.0779   -1.6322    0.0000 H       1  UNL1        0.0274
     20 H           2.8660    1.5708    0.0000 H       1  UNL1        0.0377
     21 H           6.1197   -0.6574    0.0000 H       1  UNL1        0.0271
     22 H           5.7126    0.0293    0.0000 H       1  UNL1        0.0271
     23 H           5.2087    0.8432    0.0000 H       1  UNL1        0.0347
     24 H           4.8101    1.5335    0.0000 H       1  UNL1        0.0347
     25 H           4.2131   -2.5913    0.0000 H       1  UNL1        0.0271
     26 H           5.0113   -2.5944    0.0000 H       1  UNL1        0.0271
     27 H           5.7297   -2.1797    0.0000 H       1  UNL1        0.0266
     28 H           6.1261   -1.4868    0.0000 H       1  UNL1        0.0266
     29 H           5.7741   -0.0861    0.0000 H       1  UNL1        0.0235
     30 H           6.0010    0.7608    0.0000 H       1  UNL1        0.0235
     31 H           5.1541    0.9878    0.0000 H       1  UNL1        0.0235
     32 H           2.6727   -2.1347    0.0000 H       1  UNL1        0.0235
     33 H           2.8898   -2.9842    0.0000 H       1  UNL1        0.0235
     34 H           3.7393   -2.7670    0.0000 H       1  UNL1        0.0235
     35 H           2.5671   -1.3368    0.0000 H       1  UNL1        0.0235
     36 H           2.1874   -2.1271    0.0000 H       1  UNL1        0.0235
     37 H           2.9777   -2.5068    0.0000 H       1  UNL1        0.0235
     38 H           2.3100    1.9878    0.0000 H       1  UNL1        0.0236
     39 H           1.4631    1.7608    0.0000 H       1  UNL1        0.0236
     40 H           1.6900    0.9139    0.0000 H       1  UNL1        0.0236
@<TRIPOS>BOND
     1     1    12    2
     2     2     3    1
     3     2     4    1
     4     2     5    1
     5     2     6    1
     6     3     4    1
     7     3     7    1
     8     3    17    1
     9     4    18    1
    10     4    19    1
    11     5     8    1
    12     5     9    1
    13     5    13    1
    14     6    10    1
    15     6    14    1
    16     6    15    1
    17     7    12    1
    18     7    16    1
    19     7    20    1
    20     8    11    1
    21     8    21    1
    22     8    22    1
    23     9    12    1
    24     9    23    1
    25     9    24    1
    26    10    11    1
    27    10    25    1
    28    10    26    1
    29    11    27    1
    30    11    28    1
    31    13    29    1
    32    13    30    1
    33    13    31    1
    34    14    32    1
    35    14    33    1
    36    14    34    1
    37    15    35    1
    38    15    36    1
    39    15    37    1
    40    16    38    1
    41    16    39    1
    42    16    40    1
