@<TRIPOS>MOLECULE
IMPHY007424
 55 59 0 0 0
SMALL
GASTEIGER

@<TRIPOS>ATOM
      1 O           8.2704   -0.9585    0.0000 O.3     1  UNL1       -0.4914
      2 O           8.2704    1.0898    0.0000 O.3     1  UNL1       -0.4914
      3 O           3.8622    3.6349    0.0000 O.3     1  UNL1       -0.4951
      4 N           2.9562   -1.9828    0.0000 N.3     1  UNL1       -0.2949
      5 C           3.8583   -2.5036    0.0000 C.3     1  UNL1        0.0147
      6 C           3.8751   -3.5885    0.0000 C.3     1  UNL1       -0.0370
      7 C           4.7564   -1.9759    0.0000 C.3     1  UNL1       -0.0111
      8 C           2.0084   -2.5108    0.0000 C.3     1  UNL1       -0.0005
      9 C           2.9643   -0.9412    0.0000 C.3     1  UNL1        0.0252
     10 C           2.9396   -4.1382    0.0000 C.3     1  UNL1       -0.0505
     11 C           4.7403   -0.9344    0.0000 C.ar    1  UNL1       -0.0331
     12 C           2.0000   -3.5957    0.0000 C.3     1  UNL1       -0.0401
     13 C           3.8743   -0.4344    0.0000 C.ar    1  UNL1       -0.0218
     14 C           5.6063   -0.4344    0.0000 C.ar    1  UNL1       -0.0101
     15 C           3.8743    0.5656    0.0000 C.ar    1  UNL1       -0.0124
     16 C           5.6063    0.5656    0.0000 C.ar    1  UNL1       -0.0061
     17 C           4.7403    1.0656    0.0000 C.ar    1  UNL1       -0.0063
     18 C           6.5003   -0.9690    0.0000 C.ar    1  UNL1       -0.0083
     19 C           2.9643    1.0725    0.0000 C.ar    1  UNL1       -0.0502
     20 C           6.5003    1.1003    0.0000 C.ar    1  UNL1       -0.0080
     21 C           4.7564    2.1071    0.0000 C.ar    1  UNL1       -0.0117
     22 C           7.4063   -0.4552    0.0000 C.ar    1  UNL1        0.1621
     23 C           7.4063    0.5864    0.0000 C.ar    1  UNL1        0.1621
     24 C           2.9562    2.1141    0.0000 C.ar    1  UNL1       -0.0194
     25 C           3.8583    2.6349    0.0000 C.ar    1  UNL1        0.1207
     26 C           8.2666   -1.9585    0.0000 C.3     1  UNL1        0.0790
     27 C           8.2666    2.0898    0.0000 C.3     1  UNL1        0.0790
     28 C           2.9981    4.1382    0.0000 C.3     1  UNL1        0.0788
     29 H           4.5993   -2.9201    0.0000 H       1  UNL1        0.0466
     30 H           4.0931   -4.1689    0.0000 H       1  UNL1        0.0280
     31 H           4.4842   -3.4730    0.0000 H       1  UNL1        0.0280
     32 H           4.9744   -2.5563    0.0000 H       1  UNL1        0.0329
     33 H           5.3655   -1.8604    0.0000 H       1  UNL1        0.0329
     34 H           1.8038   -1.9255    0.0000 H       1  UNL1        0.0427
     35 H           1.3967   -2.6121    0.0000 H       1  UNL1        0.0427
     36 H           2.7597   -0.3559    0.0000 H       1  UNL1        0.0476
     37 H           2.3526   -1.0426    0.0000 H       1  UNL1        0.0476
     38 H           2.5423   -4.6142    0.0000 H       1  UNL1        0.0266
     39 H           3.3406   -4.6111    0.0000 H       1  UNL1        0.0266
     40 H           1.3900   -3.4849    0.0000 H       1  UNL1        0.0278
     41 H           1.7864   -4.1778    0.0000 H       1  UNL1        0.0278
     42 H           6.4931   -1.5890    0.0000 H       1  UNL1        0.0661
     43 H           2.4310    0.7563    0.0000 H       1  UNL1        0.0625
     44 H           6.4931    1.7202    0.0000 H       1  UNL1        0.0662
     45 H           5.2968    2.4109    0.0000 H       1  UNL1        0.0660
     46 H           2.4181    2.4220    0.0000 H       1  UNL1        0.0654
     47 H           7.6466   -1.9561    0.0000 H       1  UNL1        0.0660
     48 H           8.2642   -2.5785    0.0000 H       1  UNL1        0.0660
     49 H           8.8866   -1.9609    0.0000 H       1  UNL1        0.0660
     50 H           8.8866    2.0922    0.0000 H       1  UNL1        0.0660
     51 H           8.2642    2.7098    0.0000 H       1  UNL1        0.0660
     52 H           7.6466    2.0874    0.0000 H       1  UNL1        0.0660
     53 H           3.3102    4.6740    0.0000 H       1  UNL1        0.0660
     54 H           2.4623    4.4503    0.0000 H       1  UNL1        0.0660
     55 H           2.6860    3.6025    0.0000 H       1  UNL1        0.0660
@<TRIPOS>BOND
     1     1    22    1
     2     1    26    1
     3     2    23    1
     4     2    27    1
     5     3    25    1
     6     3    28    1
     7     4     5    1
     8     4     8    1
     9     4     9    1
    10     5     6    1
    11     5     7    1
    12     5    29    1
    13     6    10    1
    14     6    30    1
    15     6    31    1
    16     7    11    1
    17     7    32    1
    18     7    33    1
    19     8    12    1
    20     8    34    1
    21     8    35    1
    22     9    13    1
    23     9    36    1
    24     9    37    1
    25    10    12    1
    26    10    38    1
    27    10    39    1
    28    11    13   ar
    29    11    14   ar
    30    12    40    1
    31    12    41    1
    32    13    15   ar
    33    14    16   ar
    34    14    18   ar
    35    15    17   ar
    36    15    19   ar
    37    16    17   ar
    38    16    20   ar
    39    17    21   ar
    40    18    22   ar
    41    18    42    1
    42    19    24   ar
    43    19    43    1
    44    20    23   ar
    45    20    44    1
    46    21    25   ar
    47    21    45    1
    48    22    23   ar
    49    24    25   ar
    50    24    46    1
    51    26    47    1
    52    26    48    1
    53    26    49    1
    54    27    50    1
    55    27    51    1
    56    27    52    1
    57    28    53    1
    58    28    54    1
    59    28    55    1
