@<TRIPOS>MOLECULE
IMPHY016134
 16 16 0 0 0
SMALL
GASTEIGER

@<TRIPOS>ATOM
      1 N           2.8660   -0.0194    0.0000 N.ar    1  UNL1       -0.3535
      2 C           2.8660   -1.0194    0.0000 C.3     1  UNL1        0.0199
      3 C           3.6750    0.5684    0.0000 C.ar    1  UNL1        0.0046
      4 C           2.0570    0.5684    0.0000 C.ar    1  UNL1        0.0046
      5 C           2.0000   -1.5194    0.0000 C.3     1  UNL1       -0.0471
      6 C           3.3660    1.5194    0.0000 C.ar    1  UNL1       -0.0442
      7 C           2.3660    1.5194    0.0000 C.ar    1  UNL1       -0.0442
      8 H           3.0781   -1.6020    0.0000 H       1  UNL1        0.0489
      9 H           3.4766   -0.9118    0.0000 H       1  UNL1        0.0489
     10 H           4.2647    0.3768    0.0000 H       1  UNL1        0.0809
     11 H           1.4674    0.3768    0.0000 H       1  UNL1        0.0809
     12 H           1.6900   -0.9825    0.0000 H       1  UNL1        0.0247
     13 H           1.4631   -1.8294    0.0000 H       1  UNL1        0.0247
     14 H           2.3100   -2.0564    0.0000 H       1  UNL1        0.0247
     15 H           3.7304    2.0210    0.0000 H       1  UNL1        0.0632
     16 H           2.0016    2.0210    0.0000 H       1  UNL1        0.0632
@<TRIPOS>BOND
     1     1     2    1
     2     1     3   ar
     3     1     4   ar
     4     2     5    1
     5     2     8    1
     6     2     9    1
     7     3     6   ar
     8     3    10    1
     9     4     7   ar
    10     4    11    1
    11     5    12    1
    12     5    13    1
    13     5    14    1
    14     6     7   ar
    15     6    15    1
    16     7    16    1
