@<TRIPOS>MOLECULE
IMPHY015729
 48 47 0 0 0
SMALL
GASTEIGER

@<TRIPOS>ATOM
      1 O          12.3923    0.7500    0.0000 O.3     1  UNL1       -0.3950
      2 C           6.3301    0.2500    0.0000 C.3     1  UNL1       -0.0439
      3 C           7.1962    0.7500    0.0000 C.3     1  UNL1       -0.0505
      4 C           5.4641    0.7500    0.0000 C.3     1  UNL1       -0.0505
      5 C           8.0622    0.2500    0.0000 C.3     1  UNL1       -0.0526
      6 C           8.9282    0.7500    0.0000 C.3     1  UNL1       -0.0504
      7 C           9.7942    0.2500    0.0000 C.3     1  UNL1       -0.0418
      8 C           4.5981    0.2500    0.0000 C.3     1  UNL1       -0.0526
      9 C           3.7320    0.7500    0.0000 C.3     1  UNL1       -0.0507
     10 C           6.3301   -0.7500    0.0000 C.3     1  UNL1       -0.0624
     11 C           2.8660    0.2500    0.0000 C.3     1  UNL1       -0.0467
     12 C          10.6603    0.7500    0.0000 C.3     1  UNL1       -0.0271
     13 C           9.7942   -0.7500    0.0000 C.3     1  UNL1       -0.0623
     14 C          11.5263    0.2500    0.0000 C.3     1  UNL1        0.0444
     15 C           2.0000    0.7500    0.0000 C.3     1  UNL1       -0.0627
     16 C           2.8660   -0.7500    0.0000 C.3     1  UNL1       -0.0627
     17 H           6.8671   -0.0600    0.0000 H       1  UNL1        0.0298
     18 H           7.5947    1.2250    0.0000 H       1  UNL1        0.0268
     19 H           6.7976    1.2250    0.0000 H       1  UNL1        0.0268
     20 H           5.8626    1.2250    0.0000 H       1  UNL1        0.0268
     21 H           5.0656    1.2250    0.0000 H       1  UNL1        0.0268
     22 H           7.6636   -0.2249    0.0000 H       1  UNL1        0.0265
     23 H           8.4607   -0.2249    0.0000 H       1  UNL1        0.0265
     24 H           9.3267    1.2250    0.0000 H       1  UNL1        0.0268
     25 H           8.5297    1.2250    0.0000 H       1  UNL1        0.0268
     26 H           9.2573   -0.0600    0.0000 H       1  UNL1        0.0299
     27 H           4.1996   -0.2249    0.0000 H       1  UNL1        0.0265
     28 H           4.9966   -0.2249    0.0000 H       1  UNL1        0.0265
     29 H           4.1306    1.2250    0.0000 H       1  UNL1        0.0268
     30 H           3.3335    1.2250    0.0000 H       1  UNL1        0.0268
     31 H           5.7101   -0.7500    0.0000 H       1  UNL1        0.0232
     32 H           6.3301   -1.3700    0.0000 H       1  UNL1        0.0232
     33 H           6.9501   -0.7500    0.0000 H       1  UNL1        0.0232
     34 H           2.8660    0.8700    0.0000 H       1  UNL1        0.0295
     35 H          11.0588    1.2250    0.0000 H       1  UNL1        0.0290
     36 H          10.2617    1.2250    0.0000 H       1  UNL1        0.0290
     37 H           9.1742   -0.7500    0.0000 H       1  UNL1        0.0232
     38 H           9.7942   -1.3700    0.0000 H       1  UNL1        0.0232
     39 H          10.4142   -0.7500    0.0000 H       1  UNL1        0.0232
     40 H          11.1278   -0.2249    0.0000 H       1  UNL1        0.0557
     41 H          11.9248   -0.2249    0.0000 H       1  UNL1        0.0557
     42 H           2.3100    1.2869    0.0000 H       1  UNL1        0.0232
     43 H           1.4631    1.0600    0.0000 H       1  UNL1        0.0232
     44 H           1.6900    0.2131    0.0000 H       1  UNL1        0.0232
     45 H           2.2460   -0.7500    0.0000 H       1  UNL1        0.0232
     46 H           2.8660   -1.3700    0.0000 H       1  UNL1        0.0232
     47 H           3.4860   -0.7500    0.0000 H       1  UNL1        0.0232
     48 H          12.9292    0.4400    0.0000 H       1  UNL1        0.2094
@<TRIPOS>BOND
     1     1    14    1
     2     1    48    1
     3     2     3    1
     4     2     4    1
     5     2    10    1
     6     2    17    1
     7     3     5    1
     8     3    18    1
     9     3    19    1
    10     4     8    1
    11     4    20    1
    12     4    21    1
    13     5     6    1
    14     5    22    1
    15     5    23    1
    16     6     7    1
    17     6    24    1
    18     6    25    1
    19     7    12    1
    20     7    13    1
    21     7    26    1
    22     8     9    1
    23     8    27    1
    24     8    28    1
    25     9    11    1
    26     9    29    1
    27     9    30    1
    28    10    31    1
    29    10    32    1
    30    10    33    1
    31    11    15    1
    32    11    16    1
    33    11    34    1
    34    12    14    1
    35    12    35    1
    36    12    36    1
    37    13    37    1
    38    13    38    1
    39    13    39    1
    40    14    40    1
    41    14    41    1
    42    15    42    1
    43    15    43    1
    44    15    44    1
    45    16    45    1
    46    16    46    1
    47    16    47    1
