@<TRIPOS>MOLECULE
IMPHY010520
 40 41 0 0 0
SMALL
GASTEIGER

@<TRIPOS>ATOM
      1 O           4.3723   -2.4064    0.0000 O.3     1  UNL1       -0.4567
      2 O           2.8836   -3.3754    0.0000 O.2     1  UNL1       -0.2505
      3 O           5.4476    3.0654    0.0000 O.3     1  UNL1       -0.3875
      4 C           3.7155   -0.9346    0.0000 C.3     1  UNL1        0.0128
      5 C           2.9785   -1.6016    0.0000 C.3     1  UNL1        0.0601
      6 C           4.5816   -1.4346    0.0000 C.3     1  UNL1        0.1250
      7 C           3.7155    0.0654    0.0000 C.3     1  UNL1       -0.0420
      8 C           4.5816    0.5654    0.0000 C.3     1  UNL1       -0.0292
      9 C           3.3836   -2.5094    0.0000 C.2     1  UNL1        0.3109
     10 C           5.4476   -0.9346    0.0000 C.2     1  UNL1       -0.0447
     11 C           2.0000   -1.3954    0.0000 C.3     1  UNL1       -0.0519
     12 C           4.5816    1.5654    0.0000 C.2     1  UNL1       -0.0485
     13 C           5.4476    2.0654    0.0000 C.3     1  UNL1        0.0763
     14 C           5.4476    0.0654    0.0000 C.2     1  UNL1       -0.0730
     15 C           6.3136    1.5654    0.0000 C.3     1  UNL1       -0.0193
     16 C           6.3136    0.5654    0.0000 C.3     1  UNL1       -0.0292
     17 C           5.2424    0.6293    0.0000 C.3     1  UNL1       -0.0437
     18 C           3.7155    2.0654    0.0000 C.2     1  UNL1       -0.0970
     19 H           2.9386   -0.5898    0.0000 H       1  UNL1        0.0348
     20 H           2.5890   -2.0840    0.0000 H       1  UNL1        0.0415
     21 H           5.2686   -1.9351    0.0000 H       1  UNL1        0.0782
     22 H           3.5035    0.6481    0.0000 H       1  UNL1        0.0272
     23 H           3.1049   -0.0422    0.0000 H       1  UNL1        0.0272
     24 H           4.7936   -0.0172    0.0000 H       1  UNL1        0.0311
     25 H           5.1921    0.6731    0.0000 H       1  UNL1        0.0311
     26 H           5.9845   -1.2446    0.0000 H       1  UNL1        0.0608
     27 H           2.1279   -0.7887    0.0000 H       1  UNL1        0.0238
     28 H           1.3933   -1.2676    0.0000 H       1  UNL1        0.0238
     29 H           1.8721   -2.0021    0.0000 H       1  UNL1        0.0238
     30 H           5.9845    2.3754    0.0000 H       1  UNL1        0.0640
     31 H           6.9242    1.4578    0.0000 H       1  UNL1        0.0296
     32 H           6.5256    2.1481    0.0000 H       1  UNL1        0.0296
     33 H           6.5256   -0.0172    0.0000 H       1  UNL1        0.0311
     34 H           6.9242    0.6731    0.0000 H       1  UNL1        0.0311
     35 H           5.8250    0.8413    0.0000 H       1  UNL1        0.0274
     36 H           5.0303    1.2119    0.0000 H       1  UNL1        0.0274
     37 H           4.6598    0.4172    0.0000 H       1  UNL1        0.0274
     38 H           3.7155    2.6854    0.0000 H       1  UNL1        0.0535
     39 H           3.1786    1.7554    0.0000 H       1  UNL1        0.0535
     40 H           5.9845    3.3754    0.0000 H       1  UNL1        0.2102
@<TRIPOS>BOND
     1     1     6    1
     2     1     9    1
     3     2     9    2
     4    13     3    1
     5     3    40    1
     6     4     5    1
     7     4     6    1
     8     4     7    1
     9     4    19    1
    10     5     9    1
    11     5    11    1
    12     5    20    1
    13     6    10    1
    14     6    21    1
    15     7     8    1
    16     7    22    1
    17     7    23    1
    18     8    12    1
    19     8    24    1
    20     8    25    1
    21    10    14    2
    22    10    26    1
    23    11    27    1
    24    11    28    1
    25    11    29    1
    26    12    13    1
    27    12    18    2
    28    13    15    1
    29    13    30    1
    30    14    16    1
    31    14    17    1
    32    15    16    1
    33    15    31    1
    34    15    32    1
    35    16    33    1
    36    16    34    1
    37    17    35    1
    38    17    36    1
    39    17    37    1
    40    18    38    1
    41    18    39    1
