@<TRIPOS>MOLECULE
IMPHY001763
 60 62 0 0 0
SMALL
GASTEIGER

@<TRIPOS>ATOM
      1 O           4.2690   -1.2500    0.0000 O.3     1  UNL1       -0.3396
      2 O           6.0010   -3.2500    0.0000 O.3     1  UNL1       -0.4533
      3 O           6.0010   -1.2500    0.0000 O.3     1  UNL1       -0.3475
      4 O           4.2690   -4.2500    0.0000 O.3     1  UNL1       -0.3853
      5 O           2.5369   -3.2500    0.0000 O.3     1  UNL1       -0.3864
      6 O           2.5369   -0.2500    0.0000 O.3     1  UNL1       -0.3924
      7 O           6.8671   -1.7500    0.0000 O.2     1  UNL1       -0.2505
      8 O           8.5991    1.2500    0.0000 O.3     1  UNL1       -0.5064
      9 O           5.1350    3.2500    0.0000 O.3     1  UNL1       -0.5033
     10 O           6.8671    4.2500    0.0000 O.3     1  UNL1       -0.5032
     11 O          11.1972   -3.2500    0.0000 O.3     1  UNL1       -0.5033
     12 O          11.1972   -1.2500    0.0000 O.3     1  UNL1       -0.5033
     13 C           4.2690   -3.2500    0.0000 C.3     1  UNL1        0.1251
     14 C           3.4030   -2.7500    0.0000 C.3     1  UNL1        0.1130
     15 C           5.1350   -2.7500    0.0000 C.3     1  UNL1        0.1816
     16 C           3.4030   -1.7500    0.0000 C.3     1  UNL1        0.1131
     17 C           5.1350   -1.7500    0.0000 C.3     1  UNL1        0.1992
     18 C           2.5369   -1.2500    0.0000 C.3     1  UNL1        0.0730
     19 C           6.0010   -0.2500    0.0000 C.3     1  UNL1        0.0549
     20 C           6.8671   -2.7500    0.0000 C.2     1  UNL1        0.3119
     21 C           6.8671    0.2500    0.0000 C.3     1  UNL1       -0.0005
     22 C           7.7331   -3.2500    0.0000 C.3     1  UNL1        0.0702
     23 C           6.8671    1.2500    0.0000 C.ar    1  UNL1       -0.0001
     24 C           8.5991   -2.7500    0.0000 C.ar    1  UNL1       -0.0331
     25 C           7.7331    1.7500    0.0000 C.ar    1  UNL1        0.1238
     26 C           6.0010    1.7500    0.0000 C.ar    1  UNL1       -0.0098
     27 C           9.4651   -3.2500    0.0000 C.ar    1  UNL1       -0.0128
     28 C           8.5991   -1.7500    0.0000 C.ar    1  UNL1       -0.0544
     29 C           6.0010    2.7500    0.0000 C.ar    1  UNL1        0.1587
     30 C           7.7331    2.7500    0.0000 C.ar    1  UNL1        0.0252
     31 C           6.8671    3.2500    0.0000 C.ar    1  UNL1        0.1617
     32 C          10.3312   -2.7500    0.0000 C.ar    1  UNL1        0.1585
     33 C           9.4651   -1.2500    0.0000 C.ar    1  UNL1       -0.0163
     34 C          10.3312   -1.7500    0.0000 C.ar    1  UNL1        0.1582
     35 H           4.8059   -3.5600    0.0000 H       1  UNL1        0.0659
     36 H           3.4030   -3.3700    0.0000 H       1  UNL1        0.0647
     37 H           5.6720   -2.4400    0.0000 H       1  UNL1        0.0813
     38 H           3.4030   -1.1300    0.0000 H       1  UNL1        0.0647
     39 H           5.1350   -1.1300    0.0000 H       1  UNL1        0.0949
     40 H           1.9264   -1.1423    0.0000 H       1  UNL1        0.0584
     41 H           2.3249   -1.8326    0.0000 H       1  UNL1        0.0584
     42 H           3.7320   -4.5600    0.0000 H       1  UNL1        0.2101
     43 H           2.0000   -2.9400    0.0000 H       1  UNL1        0.2100
     44 H           5.7890    0.3326    0.0000 H       1  UNL1        0.0564
     45 H           5.3905   -0.3577    0.0000 H       1  UNL1        0.0564
     46 H           7.0791   -0.3326    0.0000 H       1  UNL1        0.0337
     47 H           7.4776    0.3577    0.0000 H       1  UNL1        0.0337
     48 H           2.0000    0.0600    0.0000 H       1  UNL1        0.2095
     49 H           7.3346   -3.7250    0.0000 H       1  UNL1        0.0426
     50 H           8.1316   -3.7250    0.0000 H       1  UNL1        0.0426
     51 H           5.4641    1.4400    0.0000 H       1  UNL1        0.0659
     52 H           9.4651   -3.8700    0.0000 H       1  UNL1        0.0658
     53 H           8.0622   -1.4400    0.0000 H       1  UNL1        0.0622
     54 H           8.2700    3.0600    0.0000 H       1  UNL1        0.0692
     55 H           9.4651   -0.6300    0.0000 H       1  UNL1        0.0655
     56 H           9.1360    1.5600    0.0000 H       1  UNL1        0.2921
     57 H           5.1350    3.8700    0.0000 H       1  UNL1        0.2923
     58 H           7.4040    4.5600    0.0000 H       1  UNL1        0.2923
     59 H          11.1972   -3.8700    0.0000 H       1  UNL1        0.2923
     60 H          11.7341   -1.5600    0.0000 H       1  UNL1        0.2923
@<TRIPOS>BOND
     1     1    16    1
     2     1    17    1
     3    15     2    1
     4     2    20    1
     5    17     3    1
     6     3    19    1
     7    13     4    1
     8     4    42    1
     9    14     5    1
    10     5    43    1
    11     6    18    1
    12     6    48    1
    13     7    20    2
    14     8    25    1
    15     8    56    1
    16     9    29    1
    17     9    57    1
    18    10    31    1
    19    10    58    1
    20    11    32    1
    21    11    59    1
    22    12    34    1
    23    12    60    1
    24    13    14    1
    25    13    15    1
    26    13    35    1
    27    14    16    1
    28    14    36    1
    29    15    17    1
    30    15    37    1
    31    16    18    1
    32    16    38    1
    33    17    39    1
    34    18    40    1
    35    18    41    1
    36    19    21    1
    37    19    44    1
    38    19    45    1
    39    20    22    1
    40    21    23    1
    41    21    46    1
    42    21    47    1
    43    22    24    1
    44    22    49    1
    45    22    50    1
    46    23    25   ar
    47    23    26   ar
    48    24    27   ar
    49    24    28   ar
    50    25    30   ar
    51    26    29   ar
    52    26    51    1
    53    27    32   ar
    54    27    52    1
    55    28    33   ar
    56    28    53    1
    57    29    31   ar
    58    30    31   ar
    59    30    54    1
    60    32    34   ar
    61    33    34   ar
    62    33    55    1
