@<TRIPOS>MOLECULE
IMPHY000522
 39 44 0 0 0
SMALL
GASTEIGER

@<TRIPOS>ATOM
      1 C           7.4601    5.2318    0.0000 C.3     1  UNL1        0.1267
      2 C           7.4601    6.2196    0.0000 C.3     1  UNL1        0.0294
      3 C           6.5987    4.7264    0.0000 C.3     1  UNL1        0.0285
      4 C           8.3991    4.9275    0.0000 C.3     1  UNL1        0.0307
      5 O           7.5663    4.2383    0.0000 O.3     1  UNL1       -0.2257
      6 C           8.3991    6.5240    0.0000 C.3     1  UNL1        0.0244
      7 C           6.5987    6.7250    0.0000 C.3     1  UNL1        0.0027
      8 C           7.5692    7.2131    0.0000 C.3     1  UNL1        0.0028
      9 C           5.7401    5.2318    0.0000 C.3     1  UNL1        0.0094
     10 C           6.5987    3.7415    0.0000 C.3     1  UNL1        0.0025
     11 C           8.9791    5.7257    0.0000 C.3     1  UNL1        0.0067
     12 C           8.7063    7.4745    0.0000 C.2     1  UNL1        0.0053
     13 C           5.7401    6.2196    0.0000 C.3     1  UNL1        0.0006
     14 C           4.8786    4.7264    0.0000 C.3     1  UNL1        0.0610
     15 C           5.7401    3.2333    0.0000 C.3     1  UNL1        0.0006
     16 C           8.1119    8.3043    0.0000 C.2     1  UNL1        0.0769
     17 C           9.6568    7.7903    0.0000 C.3     1  UNL1        0.2314
     18 C           4.8786    3.7157    0.0000 C.3     1  UNL1        0.0095
     19 C           4.0201    5.2318    0.0000 C.3     1  UNL1        0.0428
     20 C           4.8786    5.7257    0.0000 C.2     1  UNL1        0.2066
     21 C           8.6833    9.0940    0.0000 C.2     1  UNL1        0.3412
     22 O           9.6395    8.7838    0.0000 O.3     1  UNL1       -0.4408
     23 C           4.0201    3.2074    0.0000 C.3     1  UNL1        0.0327
     24 C           3.1328    4.7264    0.0000 C.3     1  UNL1        0.1794
     25 O           4.0115    6.2254    0.0000 O.2     1  UNL1       -0.2883
     26 O           8.3675   10.0502    0.0000 O.2     1  UNL1       -0.2449
     27 C           3.1328    3.7415    0.0000 C.3     1  UNL1        0.1481
     28 O           2.2685    5.2290    0.0000 O.3     1  UNL1       -0.2205
     29 O           2.2627    3.2476    0.0000 O.3     1  UNL1       -0.3282
     30 C           2.4293    2.2627    0.0000 C.3     1  UNL1        0.2750
     31 C           1.7258    1.5477    0.0000 C.3     1  UNL1        0.2720
     32 O           3.3223    1.8148    0.0000 O.3     1  UNL1       -0.3307
     33 C           2.1881    0.6604    0.0000 C.3     1  UNL1        0.0764
     34 C           0.8930    0.9964    0.0000 C.2     1  UNL1        0.3967
     35 O           1.0912    2.3202    0.0000 O.3     1  UNL1       -0.2087
     36 C           3.1759    0.8270    0.0000 C.3     1  UNL1        0.1211
     37 O           0.9533    0.0000    0.0000 O.co2   1  UNL1       -0.2427
     38 O           0.0000    1.4415    0.0000 O.co2   1  UNL1       -0.2427
     39 C           3.8880    0.1263    0.0000 C.3     1  UNL1        0.0322
@<TRIPOS>BOND
     1     1     2    1
     2     1     3    1
     3     1     4    1
     4     1     5    1
     5     2     6    1
     6     2     7    1
     7     2     8    1
     8     3     9    1
     9     3    10    1
    10     4    11    1
    11     6    11    1
    12     6    12    1
    13     7    13    1
    14     9    13    1
    15     9    14    1
    16    10    15    1
    17    12    16    2
    18    12    17    1
    19    14    18    1
    20    14    19    1
    21    14    20    1
    22    16    21    1
    23    17    22    1
    24    18    15    1
    25    18    23    1
    26    19    24    1
    27    20    25    2
    28    21    22    1
    29    21    26    2
    30    23    27    1
    31    24    27    1
    32    24    28    1
    33    27    29    1
    34    30    29    1
    35    30    31    1
    36    30    32    1
    37    31    33    1
    38    31    34    1
    39    31    35    1
    40    32    36    1
    41    33    36    1
    42    34    37   ar
    43    34    38   ar
    44    36    39    1
