@<TRIPOS>MOLECULE
IMPHY006109
 18 17 0 0 0
SMALL
GASTEIGER

@<TRIPOS>ATOM
      1 N           3.4030   -0.0600    0.0000 N.3     1  UNL1       -0.2486
      2 N           2.5369    0.4400    0.0000 N.3     1  UNL1       -0.2681
      3 C           4.2690    0.4400    0.0000 C.3     1  UNL1        0.0130
      4 C           5.1350   -0.0600    0.0000 C.3     1  UNL1       -0.0417
      5 C           6.0010    0.4400    0.0000 C.3     1  UNL1       -0.0641
      6 C           3.4030   -1.0600    0.0000 C.3     1  UNL1        0.0019
      7 H           4.6675    0.9149    0.0000 H       1  UNL1        0.0440
      8 H           3.8705    0.9149    0.0000 H       1  UNL1        0.0440
      9 H           4.7365   -0.5349    0.0000 H       1  UNL1        0.0275
     10 H           5.5335   -0.5349    0.0000 H       1  UNL1        0.0275
     11 H           6.3110   -0.0969    0.0000 H       1  UNL1        0.0230
     12 H           6.5380    0.7500    0.0000 H       1  UNL1        0.0230
     13 H           5.6910    0.9769    0.0000 H       1  UNL1        0.0230
     14 H           2.7830   -1.0600    0.0000 H       1  UNL1        0.0405
     15 H           3.4030   -1.6800    0.0000 H       1  UNL1        0.0405
     16 H           4.0230   -1.0600    0.0000 H       1  UNL1        0.0405
     17 H           2.0000    0.1300    0.0000 H       1  UNL1        0.1370
     18 H           2.5369    1.0600    0.0000 H       1  UNL1        0.1370
@<TRIPOS>BOND
     1     1     2    1
     2     1     3    1
     3     1     6    1
     4     2    17    1
     5     2    18    1
     6     3     4    1
     7     3     7    1
     8     3     8    1
     9     4     5    1
    10     4     9    1
    11     4    10    1
    12     5    11    1
    13     5    12    1
    14     5    13    1
    15     6    14    1
    16     6    15    1
    17     6    16    1
