@<TRIPOS>MOLECULE
IMPHY016020
 28 29 0 0 0
SMALL
GASTEIGER

@<TRIPOS>ATOM
      1 C           5.4490   -0.0329    0.0000 C.3     1  UNL1       -0.0290
      2 C           4.0501   -0.0417    0.0000 C.3     1  UNL1       -0.0328
      3 C           4.3089    0.9242    0.0000 C.3     1  UNL1       -0.0353
      4 C           3.5723    1.9068    0.0000 C.3     1  UNL1       -0.0461
      5 C           2.8290   -0.9074    0.0000 C.3     1  UNL1       -0.0405
      6 C           2.2756    0.6130    0.0000 C.3     1  UNL1       -0.0495
      7 C           2.0000   -0.3482    0.0000 C.3     1  UNL1       -0.0499
      8 C           5.9490   -0.8990    0.0000 C.3     1  UNL1       -0.0593
      9 C           6.3150    0.4671    0.0000 C.3     1  UNL1       -0.0593
     10 C           2.8639   -1.9068    0.0000 C.3     1  UNL1       -0.0621
     11 H           4.2401   -0.6319    0.0000 H       1  UNL1        0.0309
     12 H           4.7592    1.3504    0.0000 H       1  UNL1        0.0306
     13 H           3.8901    2.4392    0.0000 H       1  UNL1        0.0271
     14 H           2.9591    1.9988    0.0000 H       1  UNL1        0.0271
     15 H           2.2868   -1.2080    0.0000 H       1  UNL1        0.0301
     16 H           2.2706    1.2330    0.0000 H       1  UNL1        0.0268
     17 H           1.6613    0.6968    0.0000 H       1  UNL1        0.0268
     18 H           1.4252   -0.1160    0.0000 H       1  UNL1        0.0268
     19 H           1.7089   -0.8956    0.0000 H       1  UNL1        0.0268
     20 H           5.4121   -1.2090    0.0000 H       1  UNL1        0.0235
     21 H           6.2590   -1.4359    0.0000 H       1  UNL1        0.0235
     22 H           6.4859   -0.5890    0.0000 H       1  UNL1        0.0235
     23 H           6.6250   -0.0699    0.0000 H       1  UNL1        0.0235
     24 H           6.8520    0.7771    0.0000 H       1  UNL1        0.0235
     25 H           6.0050    1.0040    0.0000 H       1  UNL1        0.0235
     26 H           2.2443   -1.9284    0.0000 H       1  UNL1        0.0233
     27 H           2.8856   -2.5264    0.0000 H       1  UNL1        0.0233
     28 H           3.4836   -1.8852    0.0000 H       1  UNL1        0.0233
@<TRIPOS>BOND
     1     1     2    1
     2     1     3    1
     3     1     8    1
     4     1     9    1
     5     2     4    1
     6     2     5    1
     7     2    11    1
     8     3     4    1
     9     3     6    1
    10     3    12    1
    11     4    13    1
    12     4    14    1
    13     5     7    1
    14     5    10    1
    15     5    15    1
    16     6     7    1
    17     6    16    1
    18     6    17    1
    19     7    18    1
    20     7    19    1
    21     8    20    1
    22     8    21    1
    23     8    22    1
    24     9    23    1
    25     9    24    1
    26     9    25    1
    27    10    26    1
    28    10    27    1
    29    10    28    1
