@<TRIPOS>MOLECULE
IMPHY015904
 30 30 0 0 0
SMALL
GASTEIGER

@<TRIPOS>ATOM
      1 O           5.4641    2.0000    0.0000 O.3     1  UNL1       -0.3872
      2 O           2.8660   -1.5000    0.0000 O.3     1  UNL1       -0.4914
      3 O           4.5981   -2.5000    0.0000 O.3     1  UNL1       -0.4915
      4 C           4.5981    1.5000    0.0000 C.3     1  UNL1        0.0800
      5 C           4.5981    0.5000    0.0000 C.ar    1  UNL1       -0.0155
      6 C           3.7320    2.0000    0.0000 C.3     1  UNL1       -0.0255
      7 C           3.7320    0.0000    0.0000 C.ar    1  UNL1       -0.0107
      8 C           5.4641    0.0000    0.0000 C.ar    1  UNL1       -0.0524
      9 C           3.7320   -1.0000    0.0000 C.ar    1  UNL1        0.1618
     10 C           3.7320    3.0000    0.0000 C.3     1  UNL1       -0.0626
     11 C           4.5981   -1.5000    0.0000 C.ar    1  UNL1        0.1615
     12 C           5.4641   -1.0000    0.0000 C.ar    1  UNL1       -0.0160
     13 C           2.0000   -1.0000    0.0000 C.3     1  UNL1        0.0790
     14 C           5.4641   -3.0000    0.0000 C.3     1  UNL1        0.0790
     15 H           4.5981    2.1200    0.0000 H       1  UNL1        0.0643
     16 H           3.1215    2.1077    0.0000 H       1  UNL1        0.0291
     17 H           3.5200    1.4174    0.0000 H       1  UNL1        0.0291
     18 H           3.1951    0.3100    0.0000 H       1  UNL1        0.0659
     19 H           6.0010    0.3100    0.0000 H       1  UNL1        0.0622
     20 H           4.3520    3.0000    0.0000 H       1  UNL1        0.0231
     21 H           3.7320    3.6200    0.0000 H       1  UNL1        0.0231
     22 H           3.1120    3.0000    0.0000 H       1  UNL1        0.0231
     23 H           6.0010   -1.3100    0.0000 H       1  UNL1        0.0655
     24 H           5.4641    2.6200    0.0000 H       1  UNL1        0.2102
     25 H           2.3100   -0.4631    0.0000 H       1  UNL1        0.0660
     26 H           1.4631   -0.6900    0.0000 H       1  UNL1        0.0660
     27 H           1.6900   -1.5369    0.0000 H       1  UNL1        0.0660
     28 H           5.1541   -3.5369    0.0000 H       1  UNL1        0.0660
     29 H           6.0010   -3.3100    0.0000 H       1  UNL1        0.0660
     30 H           5.7741   -2.4631    0.0000 H       1  UNL1        0.0660
@<TRIPOS>BOND
     1     1     4    1
     2     1    24    1
     3     2     9    1
     4     2    13    1
     5     3    11    1
     6     3    14    1
     7     4     5    1
     8     4     6    1
     9     4    15    1
    10     5     7   ar
    11     5     8   ar
    12     6    10    1
    13     6    16    1
    14     6    17    1
    15     7     9   ar
    16     7    18    1
    17     8    12   ar
    18     8    19    1
    19     9    11   ar
    20    10    20    1
    21    10    21    1
    22    10    22    1
    23    11    12   ar
    24    12    23    1
    25    13    25    1
    26    13    26    1
    27    13    27    1
    28    14    28    1
    29    14    29    1
    30    14    30    1
