@<TRIPOS>MOLECULE
IMPHY000526
 10 10 0 0 0
SMALL
GASTEIGER

@<TRIPOS>ATOM
      1 C           0.8660   -1.5000    0.0000 C.3     1  UNL1        0.1168
      2 C           0.0000   -1.0000    0.0000 C.3     1  UNL1        0.2169
      3 C           2.5981    0.5000    0.0000 C.2     1  UNL1        0.1150
      4 C           1.7321    0.0000    0.0000 C.2     1  UNL1        0.1283
      5 C           1.7321   -1.0000    0.0000 C.2     1  UNL1        0.1844
      6 C           0.8660    0.5000    0.0000 C.2     1  UNL1        0.3454
      7 N           3.4641    0.0000    0.0000 N.pl3   1  UNL1       -0.1263
      8 O           2.5981   -1.5000    0.0000 O.2     1  UNL1       -0.2909
      9 O           0.8660    1.5000    0.0000 O.2     1  UNL1       -0.2447
     10 O           0.0000    0.0000    0.0000 O.3     1  UNL1       -0.4449
@<TRIPOS>BOND
     1     1     2    1
     2     1     5    1
     3     2    10    1
     4     3     4    2
     5     3     7    1
     6     4     5    1
     7     4     6    1
     8     5     8    2
     9     6     9    2
    10     6    10    1
