@<TRIPOS>MOLECULE
IMPHY007903
 42 42 0 0 0
SMALL
GASTEIGER

@<TRIPOS>ATOM
      1 O           5.4641   -1.7500    0.0000 O.3     1  UNL1       -0.4611
      2 O           8.9282    0.2500    0.0000 O.3     1  UNL1       -0.4611
      3 O           6.3301   -0.2500    0.0000 O.2     1  UNL1       -0.2449
      4 O           7.1962    0.2500    0.0000 O.2     1  UNL1       -0.2449
      5 C           3.7320   -1.7500    0.0000 C.3     1  UNL1       -0.0188
      6 C           9.7942    1.7500    0.0000 C.3     1  UNL1       -0.0188
      7 C           2.8660   -1.2500    0.0000 C.3     1  UNL1       -0.0528
      8 C           9.7942    2.7500    0.0000 C.3     1  UNL1       -0.0528
      9 C           4.5981   -1.2500    0.0000 C.3     1  UNL1        0.0928
     10 C           8.9282    1.2500    0.0000 C.3     1  UNL1        0.0928
     11 C           7.1962   -1.7500    0.0000 C.ar    1  UNL1        0.0729
     12 C           8.0622   -1.2500    0.0000 C.ar    1  UNL1        0.0729
     13 C           2.0000   -1.7500    0.0000 C.3     1  UNL1       -0.0652
     14 C          10.6603    3.2500    0.0000 C.3     1  UNL1       -0.0652
     15 C           6.3301   -1.2500    0.0000 C.2     1  UNL1        0.3400
     16 C           8.0622   -0.2500    0.0000 C.2     1  UNL1        0.3400
     17 C           7.1962   -2.7500    0.0000 C.ar    1  UNL1       -0.0470
     18 C           8.9282   -1.7500    0.0000 C.ar    1  UNL1       -0.0470
     19 C           8.0622   -3.2500    0.0000 C.ar    1  UNL1       -0.0609
     20 C           8.9282   -2.7500    0.0000 C.ar    1  UNL1       -0.0609
     21 H           3.3335   -2.2250    0.0000 H       1  UNL1        0.0298
     22 H           4.1306   -2.2250    0.0000 H       1  UNL1        0.0298
     23 H          10.0063    1.1674    0.0000 H       1  UNL1        0.0298
     24 H          10.4048    1.8577    0.0000 H       1  UNL1        0.0298
     25 H           3.2646   -0.7751    0.0000 H       1  UNL1        0.0264
     26 H           2.4675   -0.7751    0.0000 H       1  UNL1        0.0264
     27 H           9.5822    3.3326    0.0000 H       1  UNL1        0.0264
     28 H           9.1836    2.6423    0.0000 H       1  UNL1        0.0264
     29 H           4.9966   -0.7751    0.0000 H       1  UNL1        0.0697
     30 H           4.1996   -0.7751    0.0000 H       1  UNL1        0.0697
     31 H           8.7162    1.8326    0.0000 H       1  UNL1        0.0697
     32 H           8.3176    1.1423    0.0000 H       1  UNL1        0.0697
     33 H           1.6900   -1.2131    0.0000 H       1  UNL1        0.0230
     34 H           1.4631   -2.0600    0.0000 H       1  UNL1        0.0230
     35 H           2.3100   -2.2869    0.0000 H       1  UNL1        0.0230
     36 H          10.9703    2.7131    0.0000 H       1  UNL1        0.0230
     37 H          11.1972    3.5600    0.0000 H       1  UNL1        0.0230
     38 H          10.3503    3.7869    0.0000 H       1  UNL1        0.0230
     39 H           6.6592   -3.0600    0.0000 H       1  UNL1        0.0626
     40 H           9.4651   -1.4400    0.0000 H       1  UNL1        0.0626
     41 H           8.0622   -3.8700    0.0000 H       1  UNL1        0.0618
     42 H           9.4651   -3.0600    0.0000 H       1  UNL1        0.0618
@<TRIPOS>BOND
     1     1     9    1
     2     1    15    1
     3     2    10    1
     4     2    16    1
     5     3    15    2
     6     4    16    2
     7     5     7    1
     8     5     9    1
     9     5    21    1
    10     5    22    1
    11     6     8    1
    12     6    10    1
    13     6    23    1
    14     6    24    1
    15     7    13    1
    16     7    25    1
    17     7    26    1
    18     8    14    1
    19     8    27    1
    20     8    28    1
    21     9    29    1
    22     9    30    1
    23    10    31    1
    24    10    32    1
    25    11    12   ar
    26    11    15    1
    27    11    17   ar
    28    12    16    1
    29    12    18   ar
    30    13    33    1
    31    13    34    1
    32    13    35    1
    33    14    36    1
    34    14    37    1
    35    14    38    1
    36    17    19   ar
    37    17    39    1
    38    18    20   ar
    39    18    40    1
    40    19    20   ar
    41    19    41    1
    42    20    42    1
