@<TRIPOS>MOLECULE
IMPHY005465
 26 28 0 0 0
SMALL
GASTEIGER

@<TRIPOS>ATOM
      1 O           6.0682   -1.0000    0.0000 O.2     1  UNL1       -0.4507
      2 O           6.0682    2.0000    0.0000 O.2     1  UNL1       -0.2863
      3 O           4.3198   -2.0346    0.0000 O.3     1  UNL1       -0.5009
      4 O           7.8167    2.0346    0.0000 O.3     1  UNL1       -0.5059
      5 O           2.5381   -1.0241    0.0000 O.3     1  UNL1       -0.5032
      6 C           5.2022    0.5000    0.0000 C.ar    1  UNL1        0.0686
      7 C           6.9343    0.5000    0.0000 C.ar    1  UNL1        0.1058
      8 C           5.2022   -0.5000    0.0000 C.ar    1  UNL1        0.1841
      9 C           6.9343   -0.5000    0.0000 C.ar    1  UNL1        0.1430
     10 C           6.0682    1.0000    0.0000 C.ar    1  UNL1        0.2038
     11 C           4.3083   -1.0347    0.0000 C.ar    1  UNL1        0.2021
     12 C           4.3083    1.0347    0.0000 C.ar    1  UNL1       -0.0437
     13 C           7.8282    1.0347    0.0000 C.ar    1  UNL1        0.1312
     14 C           7.8282   -1.0347    0.0000 C.ar    1  UNL1       -0.0184
     15 C           3.4022   -0.5208    0.0000 C.ar    1  UNL1        0.1620
     16 C           3.4022    0.5208    0.0000 C.ar    1  UNL1       -0.0156
     17 C           8.7343    0.5208    0.0000 C.ar    1  UNL1       -0.0192
     18 C           8.7343   -0.5208    0.0000 C.ar    1  UNL1       -0.0548
     19 H           4.3154    1.6546    0.0000 H       1  UNL1        0.0627
     20 H           7.8210   -1.6546    0.0000 H       1  UNL1        0.0654
     21 H           2.8665    0.8329    0.0000 H       1  UNL1        0.0655
     22 H           9.2700    0.8329    0.0000 H       1  UNL1        0.0654
     23 H           9.2700   -0.8329    0.0000 H       1  UNL1        0.0620
     24 H           3.7865   -2.3508    0.0000 H       1  UNL1        0.2924
     25 H           8.3500    2.3508    0.0000 H       1  UNL1        0.2922
     26 H           2.0000   -0.7162    0.0000 H       1  UNL1        0.2923
@<TRIPOS>BOND
     1     1     8   ar
     2     1     9   ar
     3     2    10    2
     4     3    11    1
     5     3    24    1
     6     4    13    1
     7     4    25    1
     8     5    15    1
     9     5    26    1
    10     6     8   ar
    11     6    10   ar
    12     6    12   ar
    13     7     9   ar
    14     7    10   ar
    15     7    13   ar
    16     8    11   ar
    17     9    14   ar
    18    11    15   ar
    19    12    16   ar
    20    12    19    1
    21    13    17   ar
    22    14    18   ar
    23    14    20    1
    24    15    16   ar
    25    16    21    1
    26    17    18   ar
    27    17    22    1
    28    18    23    1
