@<TRIPOS>MOLECULE
IMPHY009805
 97 102 0 0 0
SMALL
GASTEIGER

@<TRIPOS>ATOM
      1 O           7.2000   -2.3085    0.0000 O.3     1  UNL1       -0.4577
      2 O           6.3397   -0.8052    0.0000 O.2     1  UNL1       -0.2456
      3 C          11.7270   -0.7562    0.0000 C.3     1  UNL1       -0.0194
      4 C          10.8610   -0.2562    0.0000 C.3     1  UNL1       -0.0257
      5 C           9.9510   -0.7630    0.0000 C.3     1  UNL1       -0.0249
      6 C          12.5931   -0.2562    0.0000 C.3     1  UNL1       -0.0051
      7 C           9.9430   -1.8046    0.0000 C.3     1  UNL1       -0.0268
      8 C          11.7431   -1.7977    0.0000 C.3     1  UNL1       -0.0463
      9 C          12.5931    0.7438    0.0000 C.2     1  UNL1       -0.0634
     10 C          10.8450   -2.3255    0.0000 C.3     1  UNL1       -0.0486
     11 C           9.0076   -2.3544    0.0000 C.3     1  UNL1        0.0055
     12 C          13.4870    1.2785    0.0000 C.3     1  UNL1       -0.0135
     13 C          14.3931    0.7646    0.0000 C.3     1  UNL1       -0.0255
     14 C          10.8610    0.7438    0.0000 C.3     1  UNL1       -0.0306
     15 C          13.4870   -0.7909    0.0000 C.3     1  UNL1       -0.0429
     16 C           9.0242   -0.1990    0.0000 C.3     1  UNL1       -0.0437
     17 C          14.3931   -0.2770    0.0000 C.3     1  UNL1       -0.0463
     18 C          12.3698   -1.5223    0.0000 C.3     1  UNL1       -0.0585
     19 C           8.0679   -1.8119    0.0000 C.3     1  UNL1        0.1087
     20 C          11.7270    1.2438    0.0000 C.2     1  UNL1       -0.0836
     21 C           9.9587    0.2369    0.0000 C.3     1  UNL1       -0.0590
     22 C           8.0763   -0.7269    0.0000 C.3     1  UNL1       -0.0146
     23 C          12.9352   -1.1959    0.0000 C.3     1  UNL1       -0.0553
     24 C          13.4619    2.3632    0.0000 C.3     1  UNL1       -0.0408
     25 C          15.3368    1.2998    0.0000 C.3     1  UNL1       -0.0466
     26 C          14.3931    2.9201    0.0000 C.3     1  UNL1       -0.0343
     27 C          15.3368    2.3848    0.0000 C.3     1  UNL1       -0.0473
     28 C           8.5109   -3.2223    0.0000 C.3     1  UNL1       -0.0562
     29 C           9.5109   -3.2185    0.0000 C.3     1  UNL1       -0.0562
     30 C          15.2629    0.2713    0.0000 C.3     1  UNL1       -0.0590
     31 C          14.8830    3.7918    0.0000 C.3     1  UNL1       -0.0598
     32 C          13.8831    3.7803    0.0000 C.3     1  UNL1       -0.0598
     33 C           6.3359   -1.8052    0.0000 C.2     1  UNL1        0.3322
     34 C           5.4679   -2.3019    0.0000 C.2     1  UNL1        0.0231
     35 C           4.6038   -1.7985    0.0000 C.2     1  UNL1       -0.0478
     36 C           3.7359   -2.2952    0.0000 C.ar    1  UNL1       -0.0248
     37 C           2.8718   -1.7918    0.0000 C.ar    1  UNL1       -0.0546
     38 C           3.7320   -3.2952    0.0000 C.ar    1  UNL1       -0.0546
     39 C           2.0038   -2.2885    0.0000 C.ar    1  UNL1       -0.0612
     40 C           2.8641   -3.7918    0.0000 C.ar    1  UNL1       -0.0612
     41 C           2.0000   -3.2885    0.0000 C.ar    1  UNL1       -0.0617
     42 H          11.5971    0.1688    0.0000 H       1  UNL1        0.0315
     43 H           9.9462   -2.6546    0.0000 H       1  UNL1        0.0312
     44 H          11.9611   -2.3781    0.0000 H       1  UNL1        0.0271
     45 H          12.3522   -1.6822    0.0000 H       1  UNL1        0.0271
     46 H          10.4477   -2.8014    0.0000 H       1  UNL1        0.0268
     47 H          11.2460   -2.7984    0.0000 H       1  UNL1        0.0268
     48 H          14.2165    1.7148    0.0000 H       1  UNL1        0.0351
     49 H          13.0824   -1.2606    0.0000 H       1  UNL1        0.0274
     50 H          13.8806   -1.2699    0.0000 H       1  UNL1        0.0274
     51 H          10.6489    1.3264    0.0000 H       1  UNL1        0.0310
     52 H          10.2504    0.6361    0.0000 H       1  UNL1        0.0310
     53 H           9.4324    0.2677    0.0000 H       1  UNL1        0.0272
     54 H           8.6342    0.2831    0.0000 H       1  UNL1        0.0272
     55 H          14.6021   -0.8607    0.0000 H       1  UNL1        0.0271
     56 H          15.0039   -0.1709    0.0000 H       1  UNL1        0.0271
     57 H          11.8949   -1.9208    0.0000 H       1  UNL1        0.0235
     58 H          12.7683   -1.9972    0.0000 H       1  UNL1        0.0235
     59 H          12.8448   -1.1237    0.0000 H       1  UNL1        0.0235
     60 H           8.0667   -2.4319    0.0000 H       1  UNL1        0.0739
     61 H          11.7270    1.8638    0.0000 H       1  UNL1        0.0572
     62 H          10.5787    0.2321    0.0000 H       1  UNL1        0.0235
     63 H           9.9635    0.8569    0.0000 H       1  UNL1        0.0235
     64 H           9.3387    0.2417    0.0000 H       1  UNL1        0.0235
     65 H           7.8717   -0.1416    0.0000 H       1  UNL1        0.0301
     66 H           7.4646   -0.8283    0.0000 H       1  UNL1        0.0301
     67 H          12.3526   -1.4080    0.0000 H       1  UNL1        0.0238
     68 H          13.1473   -1.7784    0.0000 H       1  UNL1        0.0238
     69 H          13.5178   -0.9838    0.0000 H       1  UNL1        0.0238
     70 H          13.2394    2.9419    0.0000 H       1  UNL1        0.0276
     71 H          12.8537    2.2430    0.0000 H       1  UNL1        0.0276
     72 H          15.5459    0.7162    0.0000 H       1  UNL1        0.0271
     73 H          15.9477    1.4059    0.0000 H       1  UNL1        0.0271
     74 H          15.9477    2.2788    0.0000 H       1  UNL1        0.0271
     75 H          15.5459    2.9685    0.0000 H       1  UNL1        0.0271
     76 H           7.9728   -2.9144    0.0000 H       1  UNL1        0.0236
     77 H           8.2030   -3.7604    0.0000 H       1  UNL1        0.0236
     78 H           9.0490   -3.5302    0.0000 H       1  UNL1        0.0236
     79 H           8.9752   -3.5305    0.0000 H       1  UNL1        0.0236
     80 H           9.8230   -3.7542    0.0000 H       1  UNL1        0.0236
     81 H          10.0466   -2.9064    0.0000 H       1  UNL1        0.0236
     82 H          14.9571   -0.2680    0.0000 H       1  UNL1        0.0235
     83 H          15.8022   -0.0345    0.0000 H       1  UNL1        0.0235
     84 H          15.5688    0.8106    0.0000 H       1  UNL1        0.0235
     85 H          15.4235    3.4881    0.0000 H       1  UNL1        0.0235
     86 H          15.1868    4.3323    0.0000 H       1  UNL1        0.0235
     87 H          14.4164    4.0965    0.0000 H       1  UNL1        0.0235
     88 H          13.5669    4.3136    0.0000 H       1  UNL1        0.0235
     89 H          13.3498    3.4641    0.0000 H       1  UNL1        0.0235
     90 H          14.3425    4.0956    0.0000 H       1  UNL1        0.0235
     91 H           5.4655   -2.9218    0.0000 H       1  UNL1        0.0689
     92 H           4.6062   -1.1785    0.0000 H       1  UNL1        0.0626
     93 H           2.8742   -1.1718    0.0000 H       1  UNL1        0.0623
     94 H           4.2678   -3.6072    0.0000 H       1  UNL1        0.0623
     95 H           1.4681   -1.9764    0.0000 H       1  UNL1        0.0618
     96 H           2.8617   -4.4118    0.0000 H       1  UNL1        0.0618
     97 H           1.4619   -3.5964    0.0000 H       1  UNL1        0.0618
@<TRIPOS>BOND
     1    19     1    1
     2     1    33    1
     3     2    33    2
     4     3     4    1
     5     3     6    1
     6     3     8    1
     7     3    18    1
     8     4     5    1
     9     4    14    1
    10     4    42    1
    11     5     7    1
    12     5    16    1
    13     5    21    1
    14     6     9    1
    15     6    15    1
    16     6    23    1
    17     7    10    1
    18     7    11    1
    19     7    43    1
    20     8    10    1
    21     8    44    1
    22     8    45    1
    23     9    12    1
    24     9    20    2
    25    10    46    1
    26    10    47    1
    27    11    19    1
    28    11    28    1
    29    11    29    1
    30    12    13    1
    31    12    24    1
    32    12    48    1
    33    13    17    1
    34    13    25    1
    35    13    30    1
    36    14    20    1
    37    14    51    1
    38    14    52    1
    39    15    17    1
    40    15    49    1
    41    15    50    1
    42    16    22    1
    43    16    53    1
    44    16    54    1
    45    17    55    1
    46    17    56    1
    47    18    57    1
    48    18    58    1
    49    18    59    1
    50    19    22    1
    51    19    60    1
    52    20    61    1
    53    21    62    1
    54    21    63    1
    55    21    64    1
    56    22    65    1
    57    22    66    1
    58    23    67    1
    59    23    68    1
    60    23    69    1
    61    24    26    1
    62    24    70    1
    63    24    71    1
    64    25    27    1
    65    25    72    1
    66    25    73    1
    67    26    27    1
    68    26    31    1
    69    26    32    1
    70    27    74    1
    71    27    75    1
    72    28    76    1
    73    28    77    1
    74    28    78    1
    75    29    79    1
    76    29    80    1
    77    29    81    1
    78    30    82    1
    79    30    83    1
    80    30    84    1
    81    31    85    1
    82    31    86    1
    83    31    90    1
    84    32    87    1
    85    32    88    1
    86    32    89    1
    87    33    34    1
    88    34    35    2
    89    34    91    1
    90    35    36    1
    91    35    92    1
    92    36    37   ar
    93    36    38   ar
    94    37    39   ar
    95    37    93    1
    96    38    40   ar
    97    38    94    1
    98    39    41   ar
    99    39    95    1
   100    40    41   ar
   101    40    96    1
   102    41    97    1
