@<TRIPOS>MOLECULE
IMPHY008074
 75 79 0 0 0
SMALL
GASTEIGER

@<TRIPOS>ATOM
      1 O           8.9903   -3.1725    0.0000 O.3     1  UNL1       -0.3402
      2 O           7.2582   -3.1725    0.0000 O.3     1  UNL1       -0.3405
      3 O           8.1243   -0.6725    0.0000 O.3     1  UNL1       -0.3338
      4 O          10.7223   -2.1725    0.0000 O.3     1  UNL1       -0.3863
      5 O           8.9903   -5.1725    0.0000 O.3     1  UNL1       -0.3841
      6 O           8.9903    0.8275    0.0000 O.3     1  UNL1       -0.4535
      7 O          10.7223   -0.1725    0.0000 O.3     1  UNL1       -0.3829
      8 O           7.2582   -6.1725    0.0000 O.3     1  UNL1       -0.3864
      9 O           5.5262   -5.1725    0.0000 O.3     1  UNL1       -0.3865
     10 O           4.6602   -3.6725    0.0000 O.3     1  UNL1       -0.3924
     11 O           7.2582   -0.1725    0.0000 O.3     1  UNL1       -0.4912
     12 O           8.9903    2.8275    0.0000 O.3     1  UNL1       -0.5027
     13 O           5.4822    2.8343    0.0000 O.2     1  UNL1       -0.4544
     14 O           8.1460    4.3589    0.0000 O.2     1  UNL1       -0.2869
     15 O           2.0024    5.8625    0.0000 O.3     1  UNL1       -0.5068
     16 C           8.9903   -2.1725    0.0000 C.3     1  UNL1        0.1161
     17 C           9.8563   -1.6725    0.0000 C.3     1  UNL1        0.1155
     18 C           8.1243   -1.6725    0.0000 C.3     1  UNL1        0.0887
     19 C           8.1243   -3.6725    0.0000 C.3     1  UNL1        0.1884
     20 C           8.1243   -4.6725    0.0000 C.3     1  UNL1        0.1341
     21 C           9.8563   -0.6725    0.0000 C.3     1  UNL1        0.1454
     22 C           7.2582   -5.1725    0.0000 C.3     1  UNL1        0.1141
     23 C           6.3922   -4.6725    0.0000 C.3     1  UNL1        0.1119
     24 C           6.3922   -3.6725    0.0000 C.3     1  UNL1        0.1130
     25 C           8.9903   -0.1725    0.0000 C.3     1  UNL1        0.2311
     26 C           7.2582   -2.1725    0.0000 C.3     1  UNL1       -0.0360
     27 C           5.5262   -3.1725    0.0000 C.3     1  UNL1        0.0730
     28 C           8.1243    1.3275    0.0000 C.ar    1  UNL1        0.2074
     29 C           8.1243    2.3275    0.0000 C.ar    1  UNL1        0.1769
     30 C           7.2582    0.8275    0.0000 C.ar    1  UNL1        0.1688
     31 C           7.2582    2.8275    0.0000 C.ar    1  UNL1        0.1091
     32 C           6.3922    1.3275    0.0000 C.ar    1  UNL1        0.0270
     33 C           6.3922    2.3275    0.0000 C.ar    1  UNL1        0.1465
     34 C           7.2743    3.8690    0.0000 C.ar    1  UNL1        0.1967
     35 C           5.4742    3.8759    0.0000 C.ar    1  UNL1        0.1392
     36 C           6.3762    4.3967    0.0000 C.ar    1  UNL1        0.0288
     37 C           6.3922   -0.6725    0.0000 C.3     1  UNL1        0.0790
     38 C           4.6062    4.3726    0.0000 C.ar    1  UNL1        0.0176
     39 C           4.6024    5.3726    0.0000 C.ar    1  UNL1       -0.0476
     40 C           3.7421    3.8692    0.0000 C.ar    1  UNL1       -0.0476
     41 C           3.7344    5.8692    0.0000 C.ar    1  UNL1       -0.0195
     42 C           2.8742    4.3659    0.0000 C.ar    1  UNL1       -0.0195
     43 C           2.8703    5.3659    0.0000 C.ar    1  UNL1        0.1169
     44 H           8.4534   -2.4825    0.0000 H       1  UNL1        0.0650
     45 H          10.3932   -1.3625    0.0000 H       1  UNL1        0.0648
     46 H           7.5873   -1.3625    0.0000 H       1  UNL1        0.0621
     47 H           8.6612   -3.9825    0.0000 H       1  UNL1        0.0938
     48 H           8.1243   -5.2925    0.0000 H       1  UNL1        0.0671
     49 H           9.8563   -0.0525    0.0000 H       1  UNL1        0.0683
     50 H           6.7213   -5.4825    0.0000 H       1  UNL1        0.0648
     51 H           5.8553   -4.3625    0.0000 H       1  UNL1        0.0647
     52 H           6.3922   -3.0525    0.0000 H       1  UNL1        0.0647
     53 H           8.4534    0.1375    0.0000 H       1  UNL1        0.1084
     54 H           6.9482   -1.6356    0.0000 H       1  UNL1        0.0255
     55 H           6.7213   -2.4825    0.0000 H       1  UNL1        0.0255
     56 H           7.5682   -2.7095    0.0000 H       1  UNL1        0.0255
     57 H           5.9247   -2.6976    0.0000 H       1  UNL1        0.0584
     58 H           5.1276   -2.6976    0.0000 H       1  UNL1        0.0584
     59 H          11.2593   -1.8625    0.0000 H       1  UNL1        0.2100
     60 H           9.5272   -4.8625    0.0000 H       1  UNL1        0.2101
     61 H          10.7223    0.4475    0.0000 H       1  UNL1        0.2102
     62 H           7.7952   -6.4825    0.0000 H       1  UNL1        0.2100
     63 H           5.5262   -5.7925    0.0000 H       1  UNL1        0.2100
     64 H           4.1232   -3.3625    0.0000 H       1  UNL1        0.2095
     65 H           5.8553    1.0175    0.0000 H       1  UNL1        0.0692
     66 H           9.5272    2.5175    0.0000 H       1  UNL1        0.2923
     67 H           6.3786    5.0167    0.0000 H       1  UNL1        0.0693
     68 H           6.0822   -0.1356    0.0000 H       1  UNL1        0.0660
     69 H           5.8553   -0.9825    0.0000 H       1  UNL1        0.0660
     70 H           6.7022   -1.2095    0.0000 H       1  UNL1        0.0660
     71 H           5.1381    5.6846    0.0000 H       1  UNL1        0.0626
     72 H           3.7445    3.2492    0.0000 H       1  UNL1        0.0626
     73 H           3.7320    6.4892    0.0000 H       1  UNL1        0.0654
     74 H           2.3384    4.0538    0.0000 H       1  UNL1        0.0654
     75 H           2.0000    6.4825    0.0000 H       1  UNL1        0.2921
@<TRIPOS>BOND
     1    16     1    1
     2    19     1    1
     3     2    19    1
     4     2    24    1
     5     3    18    1
     6     3    25    1
     7    17     4    1
     8     4    59    1
     9    20     5    1
    10     5    60    1
    11    25     6    1
    12     6    28    1
    13    21     7    1
    14     7    61    1
    15    22     8    1
    16     8    62    1
    17    23     9    1
    18     9    63    1
    19    10    27    1
    20    10    64    1
    21    11    30    1
    22    11    37    1
    23    12    29    1
    24    12    66    1
    25    13    33   ar
    26    13    35   ar
    27    14    34    2
    28    15    43    1
    29    15    75    1
    30    16    17    1
    31    16    18    1
    32    16    44    1
    33    17    21    1
    34    17    45    1
    35    18    26    1
    36    18    46    1
    37    19    20    1
    38    19    47    1
    39    20    22    1
    40    20    48    1
    41    21    25    1
    42    21    49    1
    43    22    23    1
    44    22    50    1
    45    23    24    1
    46    23    51    1
    47    24    27    1
    48    24    52    1
    49    25    53    1
    50    26    54    1
    51    26    55    1
    52    26    56    1
    53    27    57    1
    54    27    58    1
    55    28    29   ar
    56    28    30   ar
    57    29    31   ar
    58    30    32   ar
    59    31    33   ar
    60    31    34   ar
    61    32    33   ar
    62    32    65    1
    63    34    36   ar
    64    35    36   ar
    65    35    38    1
    66    36    67    1
    67    37    68    1
    68    37    69    1
    69    37    70    1
    70    38    39   ar
    71    38    40   ar
    72    39    41   ar
    73    39    71    1
    74    40    42   ar
    75    40    72    1
    76    41    43   ar
    77    41    73    1
    78    42    43   ar
    79    42    74    1
