@<TRIPOS>MOLECULE
IMPHY005459
 33 35 0 0 0
SMALL
GASTEIGER

@<TRIPOS>ATOM
      1 O           6.3981   -0.9031    0.0000 O.2     1  UNL1       -0.4506
      2 O           8.1465   -1.9377    0.0000 O.3     1  UNL1       -0.4914
      3 O           6.3981    2.0969    0.0000 O.2     1  UNL1       -0.2861
      4 O           2.8680   -0.9273    0.0000 O.3     1  UNL1       -0.4949
      5 O           4.6497    2.1315    0.0000 O.3     1  UNL1       -0.5058
      6 O           8.1465    2.1315    0.0000 O.3     1  UNL1       -0.5059
      7 C           7.2641    0.5969    0.0000 C.ar    1  UNL1        0.1096
      8 C           5.5320    0.5969    0.0000 C.ar    1  UNL1        0.1062
      9 C           7.2641   -0.4031    0.0000 C.ar    1  UNL1        0.1841
     10 C           5.5320   -0.4031    0.0000 C.ar    1  UNL1        0.1464
     11 C           6.3981    1.0969    0.0000 C.ar    1  UNL1        0.2074
     12 C           4.6381    1.1316    0.0000 C.ar    1  UNL1        0.1347
     13 C           8.1580   -0.9378    0.0000 C.ar    1  UNL1        0.1631
     14 C           8.1580    1.1316    0.0000 C.ar    1  UNL1        0.1315
     15 C           4.6381   -0.9378    0.0000 C.ar    1  UNL1        0.0233
     16 C           3.7320   -0.4239    0.0000 C.ar    1  UNL1        0.1271
     17 C           3.7320    0.6177    0.0000 C.ar    1  UNL1        0.0225
     18 C           9.0641   -0.4239    0.0000 C.ar    1  UNL1       -0.0128
     19 C           9.0641    0.6177    0.0000 C.ar    1  UNL1       -0.0158
     20 C           9.0067   -2.4477    0.0000 C.3     1  UNL1        0.0790
     21 C           2.0000   -0.4306    0.0000 C.3     1  UNL1        0.0788
     22 H           4.6453   -1.5577    0.0000 H       1  UNL1        0.0691
     23 H           3.1963    0.9298    0.0000 H       1  UNL1        0.0691
     24 H           9.5998   -0.7360    0.0000 H       1  UNL1        0.0656
     25 H           9.5998    0.9298    0.0000 H       1  UNL1        0.0655
     26 H           4.1164    2.4477    0.0000 H       1  UNL1        0.2922
     27 H           8.6798    2.4477    0.0000 H       1  UNL1        0.2922
     28 H           8.6905   -2.9810    0.0000 H       1  UNL1        0.0660
     29 H           9.5400   -2.7639    0.0000 H       1  UNL1        0.0660
     30 H           9.3229   -1.9144    0.0000 H       1  UNL1        0.0660
     31 H           2.3079    0.1075    0.0000 H       1  UNL1        0.0660
     32 H           1.4619   -0.1227    0.0000 H       1  UNL1        0.0660
     33 H           1.6921   -0.9687    0.0000 H       1  UNL1        0.0660
@<TRIPOS>BOND
     1     1     9   ar
     2     1    10   ar
     3     2    13    1
     4     2    20    1
     5     3    11    2
     6     4    16    1
     7     4    21    1
     8     5    12    1
     9     5    26    1
    10     6    14    1
    11     6    27    1
    12     7     9   ar
    13     7    11   ar
    14     7    14   ar
    15     8    10   ar
    16     8    11   ar
    17     8    12   ar
    18     9    13   ar
    19    10    15   ar
    20    12    17   ar
    21    13    18   ar
    22    14    19   ar
    23    15    16   ar
    24    15    22    1
    25    16    17   ar
    26    17    23    1
    27    18    19   ar
    28    18    24    1
    29    19    25    1
    30    20    28    1
    31    20    29    1
    32    20    30    1
    33    21    31    1
    34    21    32    1
    35    21    33    1
