@<TRIPOS>MOLECULE
IMPHY013281
 96 95 0 0 0
SMALL
GASTEIGER

@<TRIPOS>ATOM
      1 C           8.0622   -0.0600    0.0000 C.3     1  UNL1       -0.0439
      2 C           8.9282    0.4400    0.0000 C.3     1  UNL1       -0.0505
      3 C           9.7942   -0.0600    0.0000 C.3     1  UNL1       -0.0528
      4 C          10.6603    0.4400    0.0000 C.3     1  UNL1       -0.0530
      5 C          11.5263   -0.0600    0.0000 C.3     1  UNL1       -0.0531
      6 C          12.3923    0.4400    0.0000 C.3     1  UNL1       -0.0531
      7 C           7.1962    0.4400    0.0000 C.3     1  UNL1       -0.0502
      8 C          13.2583   -0.0600    0.0000 C.3     1  UNL1       -0.0531
      9 C          14.1244    0.4400    0.0000 C.3     1  UNL1       -0.0531
     10 C          14.9904   -0.0600    0.0000 C.3     1  UNL1       -0.0531
     11 C          15.8564    0.4400    0.0000 C.3     1  UNL1       -0.0531
     12 C          16.7224   -0.0600    0.0000 C.3     1  UNL1       -0.0531
     13 C          17.5885    0.4400    0.0000 C.3     1  UNL1       -0.0531
     14 C          18.4545   -0.0600    0.0000 C.3     1  UNL1       -0.0531
     15 C          19.3205    0.4400    0.0000 C.3     1  UNL1       -0.0531
     16 C          20.1865   -0.0600    0.0000 C.3     1  UNL1       -0.0531
     17 C          21.0526    0.4400    0.0000 C.3     1  UNL1       -0.0531
     18 C           6.3301   -0.0600    0.0000 C.3     1  UNL1       -0.0494
     19 C           8.0622   -1.0600    0.0000 C.3     1  UNL1       -0.0624
     20 C          21.9186   -0.0600    0.0000 C.3     1  UNL1       -0.0531
     21 C          22.7846    0.4400    0.0000 C.3     1  UNL1       -0.0531
     22 C          23.6506   -0.0600    0.0000 C.3     1  UNL1       -0.0531
     23 C          24.5167    0.4400    0.0000 C.3     1  UNL1       -0.0531
     24 C           5.4641    0.4400    0.0000 C.3     1  UNL1       -0.0348
     25 C          25.3827   -0.0600    0.0000 C.3     1  UNL1       -0.0531
     26 C          26.2487    0.4400    0.0000 C.3     1  UNL1       -0.0533
     27 C           4.5981   -0.0600    0.0000 C.2     1  UNL1       -0.0879
     28 C          27.1147   -0.0600    0.0000 C.3     1  UNL1       -0.0559
     29 C           3.7320    0.4400    0.0000 C.2     1  UNL1       -0.0882
     30 C          27.9808    0.4400    0.0000 C.3     1  UNL1       -0.0653
     31 C           2.8660   -0.0600    0.0000 C.3     1  UNL1       -0.0376
     32 C           2.0000    0.4400    0.0000 C.3     1  UNL1       -0.0618
     33 H           7.5252   -0.3700    0.0000 H       1  UNL1        0.0298
     34 H           9.3267    0.9149    0.0000 H       1  UNL1        0.0268
     35 H           8.5297    0.9149    0.0000 H       1  UNL1        0.0268
     36 H           9.3957   -0.5349    0.0000 H       1  UNL1        0.0265
     37 H          10.1928   -0.5349    0.0000 H       1  UNL1        0.0265
     38 H          11.0588    0.9149    0.0000 H       1  UNL1        0.0265
     39 H          10.2617    0.9149    0.0000 H       1  UNL1        0.0265
     40 H          11.1278   -0.5349    0.0000 H       1  UNL1        0.0265
     41 H          11.9248   -0.5349    0.0000 H       1  UNL1        0.0265
     42 H          12.7908    0.9149    0.0000 H       1  UNL1        0.0265
     43 H          11.9938    0.9149    0.0000 H       1  UNL1        0.0265
     44 H           7.5947    0.9149    0.0000 H       1  UNL1        0.0268
     45 H           6.7976    0.9149    0.0000 H       1  UNL1        0.0268
     46 H          12.8598   -0.5349    0.0000 H       1  UNL1        0.0265
     47 H          13.6569   -0.5349    0.0000 H       1  UNL1        0.0265
     48 H          14.5229    0.9149    0.0000 H       1  UNL1        0.0265
     49 H          13.7258    0.9149    0.0000 H       1  UNL1        0.0265
     50 H          14.5919   -0.5349    0.0000 H       1  UNL1        0.0265
     51 H          15.3889   -0.5349    0.0000 H       1  UNL1        0.0265
     52 H          16.2549    0.9149    0.0000 H       1  UNL1        0.0265
     53 H          15.4579    0.9149    0.0000 H       1  UNL1        0.0265
     54 H          16.3239   -0.5349    0.0000 H       1  UNL1        0.0265
     55 H          17.1210   -0.5349    0.0000 H       1  UNL1        0.0265
     56 H          17.9870    0.9149    0.0000 H       1  UNL1        0.0265
     57 H          17.1899    0.9149    0.0000 H       1  UNL1        0.0265
     58 H          18.0560   -0.5349    0.0000 H       1  UNL1        0.0265
     59 H          18.8530   -0.5349    0.0000 H       1  UNL1        0.0265
     60 H          19.7190    0.9149    0.0000 H       1  UNL1        0.0265
     61 H          18.9220    0.9149    0.0000 H       1  UNL1        0.0265
     62 H          19.7880   -0.5349    0.0000 H       1  UNL1        0.0265
     63 H          20.5851   -0.5349    0.0000 H       1  UNL1        0.0265
     64 H          21.4511    0.9149    0.0000 H       1  UNL1        0.0265
     65 H          20.6540    0.9149    0.0000 H       1  UNL1        0.0265
     66 H           5.9316   -0.5349    0.0000 H       1  UNL1        0.0268
     67 H           6.7287   -0.5349    0.0000 H       1  UNL1        0.0268
     68 H           7.4422   -1.0600    0.0000 H       1  UNL1        0.0232
     69 H           8.0622   -1.6800    0.0000 H       1  UNL1        0.0232
     70 H           8.6822   -1.0600    0.0000 H       1  UNL1        0.0232
     71 H          21.5201   -0.5349    0.0000 H       1  UNL1        0.0265
     72 H          22.3171   -0.5349    0.0000 H       1  UNL1        0.0265
     73 H          23.1831    0.9149    0.0000 H       1  UNL1        0.0265
     74 H          22.3861    0.9149    0.0000 H       1  UNL1        0.0265
     75 H          23.2521   -0.5349    0.0000 H       1  UNL1        0.0265
     76 H          24.0492   -0.5349    0.0000 H       1  UNL1        0.0265
     77 H          24.9152    0.9149    0.0000 H       1  UNL1        0.0265
     78 H          24.1181    0.9149    0.0000 H       1  UNL1        0.0265
     79 H           5.8626    0.9149    0.0000 H       1  UNL1        0.0307
     80 H           5.0656    0.9149    0.0000 H       1  UNL1        0.0307
     81 H          24.9842   -0.5349    0.0000 H       1  UNL1        0.0265
     82 H          25.7812   -0.5349    0.0000 H       1  UNL1        0.0265
     83 H          26.6472    0.9149    0.0000 H       1  UNL1        0.0265
     84 H          25.8502    0.9149    0.0000 H       1  UNL1        0.0265
     85 H           4.5981   -0.6800    0.0000 H       1  UNL1        0.0569
     86 H          26.7162   -0.5349    0.0000 H       1  UNL1        0.0263
     87 H          27.5133   -0.5349    0.0000 H       1  UNL1        0.0263
     88 H           3.7320    1.0600    0.0000 H       1  UNL1        0.0569
     89 H          28.2908   -0.0969    0.0000 H       1  UNL1        0.0230
     90 H          28.5177    0.7500    0.0000 H       1  UNL1        0.0230
     91 H          27.6708    0.9769    0.0000 H       1  UNL1        0.0230
     92 H           2.4675   -0.5349    0.0000 H       1  UNL1        0.0305
     93 H           3.2646   -0.5349    0.0000 H       1  UNL1        0.0305
     94 H           2.3100    0.9769    0.0000 H       1  UNL1        0.0233
     95 H           1.4631    0.7500    0.0000 H       1  UNL1        0.0233
     96 H           1.6900   -0.0969    0.0000 H       1  UNL1        0.0233
@<TRIPOS>BOND
     1     1     2    1
     2     1     7    1
     3     1    19    1
     4     1    33    1
     5     2     3    1
     6     2    34    1
     7     2    35    1
     8     3     4    1
     9     3    36    1
    10     3    37    1
    11     4     5    1
    12     4    38    1
    13     4    39    1
    14     5     6    1
    15     5    40    1
    16     5    41    1
    17     6     8    1
    18     6    42    1
    19     6    43    1
    20     7    18    1
    21     7    44    1
    22     7    45    1
    23     8     9    1
    24     8    46    1
    25     8    47    1
    26     9    10    1
    27     9    48    1
    28     9    49    1
    29    10    11    1
    30    10    50    1
    31    10    51    1
    32    11    12    1
    33    11    52    1
    34    11    53    1
    35    12    13    1
    36    12    54    1
    37    12    55    1
    38    13    14    1
    39    13    56    1
    40    13    57    1
    41    14    15    1
    42    14    58    1
    43    14    59    1
    44    15    16    1
    45    15    60    1
    46    15    61    1
    47    16    17    1
    48    16    62    1
    49    16    63    1
    50    17    20    1
    51    17    64    1
    52    17    65    1
    53    18    24    1
    54    18    66    1
    55    18    67    1
    56    19    68    1
    57    19    69    1
    58    19    70    1
    59    20    21    1
    60    20    71    1
    61    20    72    1
    62    21    22    1
    63    21    73    1
    64    21    74    1
    65    22    23    1
    66    22    75    1
    67    22    76    1
    68    23    25    1
    69    23    77    1
    70    23    78    1
    71    24    27    1
    72    24    79    1
    73    24    80    1
    74    25    26    1
    75    25    81    1
    76    25    82    1
    77    26    28    1
    78    26    83    1
    79    26    84    1
    80    27    29    2
    81    27    85    1
    82    28    30    1
    83    28    86    1
    84    28    87    1
    85    29    31    1
    86    29    88    1
    87    30    89    1
    88    30    90    1
    89    30    91    1
    90    31    32    1
    91    31    92    1
    92    31    93    1
    93    32    94    1
    94    32    95    1
    95    32    96    1
