@<TRIPOS>MOLECULE
IMPHY004679
 27 27 0 0 0
SMALL
GASTEIGER

@<TRIPOS>ATOM
      1 O           3.7320    2.7500    0.0000 O.2     1  UNL1       -0.3007
      2 C           2.8660    0.2500    0.0000 C.3     1  UNL1       -0.0283
      3 C           2.0000   -0.2500    0.0000 C.3     1  UNL1       -0.0456
      4 C           3.7320   -0.2500    0.0000 C.3     1  UNL1       -0.0310
      5 C           2.8660    1.2500    0.0000 C.3     1  UNL1        0.0148
      6 C           2.0000   -1.2500    0.0000 C.3     1  UNL1       -0.0317
      7 C           2.8660   -1.7500    0.0000 C.2     1  UNL1       -0.0765
      8 C           3.7320   -1.2500    0.0000 C.2     1  UNL1       -0.0847
      9 C           2.0000    1.7500    0.0000 C.3     1  UNL1       -0.0557
     10 C           3.7320    1.7500    0.0000 C.2     1  UNL1        0.1234
     11 C           2.8660   -2.7500    0.0000 C.3     1  UNL1       -0.0438
     12 H           3.4030    0.5600    0.0000 H       1  UNL1        0.0310
     13 H           1.7880    0.3326    0.0000 H       1  UNL1        0.0271
     14 H           1.3894   -0.3577    0.0000 H       1  UNL1        0.0271
     15 H           2.8660    1.8700    0.0000 H       1  UNL1        0.0375
     16 H           4.3426   -0.3577    0.0000 H       1  UNL1        0.0310
     17 H           3.9441    0.3326    0.0000 H       1  UNL1        0.0310
     18 H           1.3894   -1.1423    0.0000 H       1  UNL1        0.0310
     19 H           1.7880   -1.8326    0.0000 H       1  UNL1        0.0310
     20 H           4.2690   -1.5600    0.0000 H       1  UNL1        0.0572
     21 H           2.3100    2.2869    0.0000 H       1  UNL1        0.0236
     22 H           1.4631    2.0600    0.0000 H       1  UNL1        0.0236
     23 H           1.6900    1.2131    0.0000 H       1  UNL1        0.0236
     24 H           4.2690    1.4400    0.0000 H       1  UNL1        0.1029
     25 H           2.2460   -2.7500    0.0000 H       1  UNL1        0.0274
     26 H           2.8660   -3.3700    0.0000 H       1  UNL1        0.0274
     27 H           3.4860   -2.7500    0.0000 H       1  UNL1        0.0274
@<TRIPOS>BOND
     1     1    10    2
     2     2     3    1
     3     2     4    1
     4     2     5    1
     5     2    12    1
     6     3     6    1
     7     3    13    1
     8     3    14    1
     9     4     8    1
    10     4    16    1
    11     4    17    1
    12     5     9    1
    13     5    10    1
    14     5    15    1
    15     6     7    1
    16     6    18    1
    17     6    19    1
    18     7     8    2
    19     7    11    1
    20     8    20    1
    21     9    21    1
    22     9    22    1
    23     9    23    1
    24    10    24    1
    25    11    25    1
    26    11    26    1
    27    11    27    1
