@<TRIPOS>MOLECULE
IMPHY013314
 66 73 0 0 0
SMALL
GASTEIGER

@<TRIPOS>ATOM
      1 O          10.9639    2.2662    0.0000 O.3     1  UNL1       -0.4777
      2 O           7.7759   -0.3225    0.0000 O.2     1  UNL1       -0.4582
      3 O           6.8833    2.9408    0.0000 O.2     1  UNL1       -0.2876
      4 O           5.0926    1.7154    0.0000 O.3     1  UNL1       -0.4215
      5 O          13.4061   -0.4079    0.0000 O.3     1  UNL1       -0.5066
      6 O           4.7153   -2.7215    0.0000 O.2     1  UNL1       -0.4547
      7 O           3.4588    1.1404    0.0000 O.2     1  UNL1       -0.2444
      8 O           2.6001   -5.5721    0.0000 O.3     1  UNL1       -0.5066
      9 O           5.4116    3.4178    0.0000 O.3     1  UNL1       -0.5058
     10 O           2.7820    5.6728    0.0000 O.3     1  UNL1       -0.5066
     11 C           9.5322    2.4639    0.0000 C.3     1  UNL1        0.1706
     12 C           9.2734    1.4980    0.0000 C.3     1  UNL1        0.0504
     13 C           8.7956    3.4465    0.0000 C.3     1  UNL1        0.0081
     14 C           8.0524    0.6323    0.0000 C.ar    1  UNL1        0.1246
     15 C           7.2234    1.1915    0.0000 C.ar    1  UNL1        0.0742
     16 C           7.4990    2.1528    0.0000 C.2     1  UNL1        0.2101
     17 C          10.5451    0.7033    0.0000 C.ar    1  UNL1        0.0051
     18 C           9.7910    3.4298    0.0000 C.3     1  UNL1       -0.0175
     19 C          11.3222    1.3327    0.0000 C.ar    1  UNL1        0.1292
     20 C           6.4416    0.5775    0.0000 C.ar    1  UNL1        0.0734
     21 C           6.7824   -0.3564    0.0000 C.ar    1  UNL1        0.1401
     22 C          10.6922   -0.3279    0.0000 C.ar    1  UNL1       -0.0510
     23 C          12.3003    0.9744    0.0000 C.ar    1  UNL1        0.0219
     24 C           5.4246    0.7721    0.0000 C.ar    1  UNL1        0.1441
     25 C           6.1298   -1.1603    0.0000 C.ar    1  UNL1       -0.0078
     26 C          11.6617   -0.7086    0.0000 C.ar    1  UNL1       -0.0197
     27 C          12.4712   -0.0531    0.0000 C.ar    1  UNL1        0.1203
     28 C           5.1086   -0.9893    0.0000 C.ar    1  UNL1        0.0243
     29 C           4.7536   -0.0165    0.0000 C.ar    1  UNL1       -0.0077
     30 C           4.4694   -1.7583    0.0000 C.ar    1  UNL1        0.1365
     31 C           3.4775   -1.6928    0.0000 C.ar    1  UNL1       -0.0081
     32 C           4.1097    1.8996    0.0000 C.2     1  UNL1        0.3480
     33 C           3.1071   -2.6153    0.0000 C.ar    1  UNL1        0.0210
     34 C           3.8761   -3.2545    0.0000 C.ar    1  UNL1        0.1391
     35 C           3.7778    2.8429    0.0000 C.ar    1  UNL1        0.1009
     36 C           2.1690   -2.9617    0.0000 C.ar    1  UNL1       -0.0475
     37 C           3.7071   -4.2401    0.0000 C.ar    1  UNL1        0.0227
     38 C           2.7691   -4.5865    0.0000 C.ar    1  UNL1        0.1204
     39 C           2.0000   -3.9474    0.0000 C.ar    1  UNL1       -0.0194
     40 C           4.4287    3.6020    0.0000 C.ar    1  UNL1        0.1343
     41 C           2.7949    3.0270    0.0000 C.ar    1  UNL1       -0.0408
     42 C           4.0968    4.5453    0.0000 C.ar    1  UNL1        0.0221
     43 C           2.4630    3.9703    0.0000 C.ar    1  UNL1       -0.0192
     44 C           3.1139    4.7294    0.0000 C.ar    1  UNL1        0.1204
     45 H           9.7757    1.8614    0.0000 H       1  UNL1        0.0431
     46 H           9.1134    3.9789    0.0000 H       1  UNL1        0.0318
     47 H           8.1825    3.5385    0.0000 H       1  UNL1        0.0318
     48 H          10.3899    3.2694    0.0000 H       1  UNL1        0.0272
     49 H           9.9515    4.0287    0.0000 H       1  UNL1        0.0272
     50 H           9.1922    3.5903    0.0000 H       1  UNL1        0.0272
     51 H          10.2058   -0.7124    0.0000 H       1  UNL1        0.0623
     52 H          12.7776    1.3701    0.0000 H       1  UNL1        0.0691
     53 H           6.3491   -1.7402    0.0000 H       1  UNL1        0.0661
     54 H          11.7563   -1.3214    0.0000 H       1  UNL1        0.0654
     55 H           4.1433    0.0929    0.0000 H       1  UNL1        0.0662
     56 H          13.5055   -1.0199    0.0000 H       1  UNL1        0.2921
     57 H           3.1474   -1.1680    0.0000 H       1  UNL1        0.0661
     58 H           1.6922   -2.5655    0.0000 H       1  UNL1        0.0626
     59 H           4.1840   -4.6364    0.0000 H       1  UNL1        0.0691
     60 H           1.4184   -4.1622    0.0000 H       1  UNL1        0.0654
     61 H           2.3913    2.5564    0.0000 H       1  UNL1        0.0628
     62 H           4.5004    5.0159    0.0000 H       1  UNL1        0.0691
     63 H           1.8536    4.0845    0.0000 H       1  UNL1        0.0654
     64 H           2.0185   -5.7869    0.0000 H       1  UNL1        0.2921
     65 H           5.8152    3.8885    0.0000 H       1  UNL1        0.2922
     66 H           2.1726    5.7869    0.0000 H       1  UNL1        0.2921
@<TRIPOS>BOND
     1     1    11    1
     2     1    19    1
     3     2    14   ar
     4     2    21   ar
     5     3    16    2
     6     4    24    1
     7     4    32    1
     8     5    27    1
     9     5    56    1
    10     6    30   ar
    11     6    34   ar
    12     7    32    2
    13     8    38    1
    14     8    64    1
    15     9    40    1
    16     9    65    1
    17    10    44    1
    18    10    66    1
    19    11    13    1
    20    11    16    1
    21    11    18    1
    22    12    13    1
    23    12    14    1
    24    12    17    1
    25    12    45    1
    26    13    46    1
    27    13    47    1
    28    14    15   ar
    29    15    16    1
    30    15    20   ar
    31    17    19   ar
    32    17    22   ar
    33    18    48    1
    34    18    49    1
    35    18    50    1
    36    19    23   ar
    37    20    21   ar
    38    20    24   ar
    39    21    25   ar
    40    22    26   ar
    41    22    51    1
    42    23    27   ar
    43    23    52    1
    44    24    29   ar
    45    25    28   ar
    46    25    53    1
    47    26    27   ar
    48    26    54    1
    49    28    29   ar
    50    28    30    1
    51    29    55    1
    52    30    31   ar
    53    31    33   ar
    54    31    57    1
    55    32    35    1
    56    33    34   ar
    57    33    36   ar
    58    34    37   ar
    59    35    40   ar
    60    35    41   ar
    61    36    39   ar
    62    36    58    1
    63    37    38   ar
    64    37    59    1
    65    38    39   ar
    66    39    60    1
    67    40    42   ar
    68    41    43   ar
    69    41    61    1
    70    42    44   ar
    71    42    62    1
    72    43    44   ar
    73    43    63    1
