@<TRIPOS>MOLECULE
IMPHY002464
 103 107 0 0 0
SMALL
GASTEIGER

@<TRIPOS>ATOM
      1 O           7.7331   -3.5000    0.0000 O.3     1  UNL1       -0.3400
      2 O           7.7331   -0.5000    0.0000 O.3     1  UNL1       -0.3394
      3 O           6.0010   -2.5000    0.0000 O.3     1  UNL1       -0.3401
      4 O           9.4651   -3.5000    0.0000 O.3     1  UNL1       -0.3431
      5 O           9.4651   -2.5000    0.0000 O.3     1  UNL1       -0.3841
      6 O           9.4651   -0.5000    0.0000 O.3     1  UNL1       -0.3484
      7 O           5.1350   -1.0000    0.0000 O.3     1  UNL1       -0.3461
      8 O           7.7331   -5.5000    0.0000 O.3     1  UNL1       -0.3841
      9 O           9.4651   -6.5000    0.0000 O.3     1  UNL1       -0.3864
     10 O           6.0010    0.5000    0.0000 O.3     1  UNL1       -0.4589
     11 O          11.1972   -5.5000    0.0000 O.3     1  UNL1       -0.3866
     12 O           4.2690   -3.5000    0.0000 O.3     1  UNL1       -0.3841
     13 O           2.5369   -2.5000    0.0000 O.3     1  UNL1       -0.3864
     14 O           2.5369   -0.5000    0.0000 O.3     1  UNL1       -0.3869
     15 O           7.7331    0.5000    0.0000 O.2     1  UNL1       -0.2456
     16 O          12.0632    4.0000    0.0000 O.3     1  UNL1       -0.4915
     17 O          10.3312    5.0000    0.0000 O.3     1  UNL1       -0.5033
     18 O           7.7331    5.5000    0.0000 O.3     1  UNL1       -0.4914
     19 O           6.0010    6.5000    0.0000 O.3     1  UNL1       -0.5033
     20 C           7.7331   -2.5000    0.0000 C.3     1  UNL1        0.1210
     21 C           6.8671   -2.0000    0.0000 C.3     1  UNL1        0.1198
     22 C           8.5991   -2.0000    0.0000 C.3     1  UNL1        0.1345
     23 C           6.8671   -1.0000    0.0000 C.3     1  UNL1        0.1244
     24 C           8.5991   -1.0000    0.0000 C.3     1  UNL1        0.1880
     25 C           8.5991   -4.0000    0.0000 C.3     1  UNL1        0.1883
     26 C           8.5991   -5.0000    0.0000 C.3     1  UNL1        0.1341
     27 C           9.4651   -5.5000    0.0000 C.3     1  UNL1        0.1140
     28 C           5.1350   -2.0000    0.0000 C.3     1  UNL1        0.1880
     29 C          10.3312   -5.0000    0.0000 C.3     1  UNL1        0.1095
     30 C          10.3312   -4.0000    0.0000 C.3     1  UNL1        0.0873
     31 C           6.0010   -0.5000    0.0000 C.3     1  UNL1        0.1215
     32 C           4.2690   -2.5000    0.0000 C.3     1  UNL1        0.1341
     33 C           3.4030   -2.0000    0.0000 C.3     1  UNL1        0.1137
     34 C           3.4030   -1.0000    0.0000 C.3     1  UNL1        0.1069
     35 C           4.2690   -0.5000    0.0000 C.3     1  UNL1        0.0792
     36 C          11.1972   -3.5000    0.0000 C.3     1  UNL1       -0.0361
     37 C           9.4651    0.5000    0.0000 C.3     1  UNL1        0.0547
     38 C          10.3312    1.0000    0.0000 C.3     1  UNL1       -0.0039
     39 C           6.8671    1.0000    0.0000 C.2     1  UNL1        0.3320
     40 C          10.3312    2.0000    0.0000 C.ar    1  UNL1       -0.0415
     41 C           6.8671    2.0000    0.0000 C.2     1  UNL1        0.0231
     42 C          11.1972    2.5000    0.0000 C.ar    1  UNL1       -0.0131
     43 C           9.4651    2.5000    0.0000 C.ar    1  UNL1       -0.0548
     44 C          11.1972    3.5000    0.0000 C.ar    1  UNL1        0.1615
     45 C           9.4651    3.5000    0.0000 C.ar    1  UNL1       -0.0163
     46 C           6.0010    2.5000    0.0000 C.2     1  UNL1       -0.0477
     47 C          10.3312    4.0000    0.0000 C.ar    1  UNL1        0.1585
     48 C           6.0010    3.5000    0.0000 C.ar    1  UNL1       -0.0211
     49 C           6.8671    4.0000    0.0000 C.ar    1  UNL1       -0.0092
     50 C           5.1350    4.0000    0.0000 C.ar    1  UNL1       -0.0509
     51 C          12.9292    3.5000    0.0000 C.3     1  UNL1        0.0790
     52 C           6.8671    5.0000    0.0000 C.ar    1  UNL1        0.1618
     53 C           5.1350    5.0000    0.0000 C.ar    1  UNL1       -0.0160
     54 C           6.0010    5.5000    0.0000 C.ar    1  UNL1        0.1585
     55 C           7.7331    6.5000    0.0000 C.3     1  UNL1        0.0790
     56 H           8.2700   -2.8100    0.0000 H       1  UNL1        0.0651
     57 H           6.3301   -1.6900    0.0000 H       1  UNL1        0.0651
     58 H           9.1360   -1.6900    0.0000 H       1  UNL1        0.0671
     59 H           6.8671   -0.3800    0.0000 H       1  UNL1        0.0658
     60 H           8.5991   -0.3800    0.0000 H       1  UNL1        0.0937
     61 H           8.5991   -3.3800    0.0000 H       1  UNL1        0.0938
     62 H           8.5991   -5.6200    0.0000 H       1  UNL1        0.0671
     63 H          10.0021   -5.8100    0.0000 H       1  UNL1        0.0648
     64 H           5.1350   -2.6200    0.0000 H       1  UNL1        0.0937
     65 H          10.8681   -4.6900    0.0000 H       1  UNL1        0.0646
     66 H          10.3312   -3.3800    0.0000 H       1  UNL1        0.0621
     67 H           5.3905   -0.3923    0.0000 H       1  UNL1        0.0725
     68 H           5.7890   -1.0826    0.0000 H       1  UNL1        0.0725
     69 H           3.7320   -2.8100    0.0000 H       1  UNL1        0.0671
     70 H           2.8660   -1.6900    0.0000 H       1  UNL1        0.0647
     71 H           3.4030   -0.3800    0.0000 H       1  UNL1        0.0643
     72 H          10.0021   -2.1900    0.0000 H       1  UNL1        0.2101
     73 H           4.6675   -0.0251    0.0000 H       1  UNL1        0.0587
     74 H           3.8705   -0.0251    0.0000 H       1  UNL1        0.0587
     75 H          11.5072   -4.0369    0.0000 H       1  UNL1        0.0255
     76 H          11.7341   -3.1900    0.0000 H       1  UNL1        0.0255
     77 H          10.8872   -2.9631    0.0000 H       1  UNL1        0.0255
     78 H           7.7331   -6.1200    0.0000 H       1  UNL1        0.2101
     79 H           9.2531    1.0826    0.0000 H       1  UNL1        0.0564
     80 H           8.8546    0.3923    0.0000 H       1  UNL1        0.0564
     81 H          10.0021   -6.8100    0.0000 H       1  UNL1        0.2100
     82 H          11.7341   -5.1900    0.0000 H       1  UNL1        0.2100
     83 H           3.7320   -3.8100    0.0000 H       1  UNL1        0.2101
     84 H           2.0000   -2.1900    0.0000 H       1  UNL1        0.2100
     85 H          10.5432    0.4174    0.0000 H       1  UNL1        0.0335
     86 H          10.9417    1.1077    0.0000 H       1  UNL1        0.0335
     87 H           2.5369    0.1200    0.0000 H       1  UNL1        0.2100
     88 H           7.4040    2.3100    0.0000 H       1  UNL1        0.0689
     89 H          11.7341    2.1900    0.0000 H       1  UNL1        0.0658
     90 H           8.9282    2.1900    0.0000 H       1  UNL1        0.0621
     91 H           8.9282    3.8100    0.0000 H       1  UNL1        0.0655
     92 H           5.4641    2.1900    0.0000 H       1  UNL1        0.0626
     93 H          10.8681    5.3100    0.0000 H       1  UNL1        0.2923
     94 H           7.4040    3.6900    0.0000 H       1  UNL1        0.0661
     95 H           4.5981    3.6900    0.0000 H       1  UNL1        0.0625
     96 H          12.6192    2.9631    0.0000 H       1  UNL1        0.0660
     97 H          13.4662    3.1900    0.0000 H       1  UNL1        0.0660
     98 H          13.2392    4.0369    0.0000 H       1  UNL1        0.0660
     99 H           4.5981    5.3100    0.0000 H       1  UNL1        0.0655
    100 H           5.4641    6.8100    0.0000 H       1  UNL1        0.2923
    101 H           8.3531    6.5000    0.0000 H       1  UNL1        0.0660
    102 H           7.7331    7.1200    0.0000 H       1  UNL1        0.0660
    103 H           7.1131    6.5000    0.0000 H       1  UNL1        0.0660
@<TRIPOS>BOND
     1    20     1    1
     2    25     1    1
     3     2    23    1
     4     2    24    1
     5    21     3    1
     6    28     3    1
     7     4    25    1
     8     4    30    1
     9    22     5    1
    10     5    72    1
    11    24     6    1
    12     6    37    1
    13     7    28    1
    14     7    35    1
    15    26     8    1
    16     8    78    1
    17    27     9    1
    18     9    81    1
    19    10    31    1
    20    10    39    1
    21    29    11    1
    22    11    82    1
    23    32    12    1
    24    12    83    1
    25    33    13    1
    26    13    84    1
    27    34    14    1
    28    14    87    1
    29    15    39    2
    30    16    44    1
    31    16    51    1
    32    17    47    1
    33    17    93    1
    34    18    52    1
    35    18    55    1
    36    19    54    1
    37    19   100    1
    38    20    21    1
    39    20    22    1
    40    20    56    1
    41    21    23    1
    42    21    57    1
    43    22    24    1
    44    22    58    1
    45    23    31    1
    46    23    59    1
    47    24    60    1
    48    25    26    1
    49    25    61    1
    50    26    27    1
    51    26    62    1
    52    27    29    1
    53    27    63    1
    54    28    32    1
    55    28    64    1
    56    29    30    1
    57    29    65    1
    58    30    36    1
    59    30    66    1
    60    31    67    1
    61    31    68    1
    62    32    33    1
    63    32    69    1
    64    33    34    1
    65    33    70    1
    66    34    35    1
    67    34    71    1
    68    35    73    1
    69    35    74    1
    70    36    75    1
    71    36    76    1
    72    36    77    1
    73    37    38    1
    74    37    79    1
    75    37    80    1
    76    38    40    1
    77    38    85    1
    78    38    86    1
    79    39    41    1
    80    40    42   ar
    81    40    43   ar
    82    41    46    2
    83    41    88    1
    84    42    44   ar
    85    42    89    1
    86    43    45   ar
    87    43    90    1
    88    44    47   ar
    89    45    47   ar
    90    45    91    1
    91    46    48    1
    92    46    92    1
    93    48    49   ar
    94    48    50   ar
    95    49    52   ar
    96    49    94    1
    97    50    53   ar
    98    50    95    1
    99    51    96    1
   100    51    97    1
   101    51    98    1
   102    52    54   ar
   103    53    54   ar
   104    53    99    1
   105    55   101    1
   106    55   102    1
   107    55   103    1
