@<TRIPOS>MOLECULE
IMPHY013590
 46 49 0 0 0
SMALL
GASTEIGER

@<TRIPOS>ATOM
      1 O           7.2901    0.1907    0.0000 O.3     1  UNL1       -0.4767
      2 O           7.2901   -1.8786    0.0000 O.3     1  UNL1       -0.4788
      3 O           9.0564   -2.8681    0.0000 O.3     1  UNL1       -0.3912
      4 O           3.7702    0.1907    0.0000 O.2     1  UNL1       -0.4220
      5 O           9.9166    2.6835    0.0000 O.3     1  UNL1       -0.4913
      6 O          11.6602   -0.3098    0.0000 O.3     1  UNL1       -0.4913
      7 O          11.6525    1.6902    0.0000 O.3     1  UNL1       -0.5009
      8 O           2.0000    0.1802    0.0000 O.2     1  UNL1       -0.2452
      9 C           8.1962   -0.3231    0.0000 C.3     1  UNL1        0.1643
     10 C           8.1962   -1.3648    0.0000 C.3     1  UNL1        0.1639
     11 C           9.0602    0.1802    0.0000 C.ar    1  UNL1        0.0034
     12 C           9.0602   -1.8681    0.0000 C.3     1  UNL1        0.0850
     13 C           6.3961   -0.3440    0.0000 C.ar    1  UNL1        0.1665
     14 C           6.3961   -1.3440    0.0000 C.ar    1  UNL1        0.1634
     15 C           9.9282   -0.3165    0.0000 C.ar    1  UNL1       -0.0093
     16 C           9.0564    1.1802    0.0000 C.ar    1  UNL1       -0.0093
     17 C           5.5301   -1.8440    0.0000 C.ar    1  UNL1       -0.0056
     18 C           5.5301    0.1560    0.0000 C.ar    1  UNL1        0.0268
     19 C           4.6641   -1.3440    0.0000 C.ar    1  UNL1        0.0213
     20 C           4.6641   -0.3440    0.0000 C.ar    1  UNL1        0.1428
     21 C           9.9205    1.6835    0.0000 C.ar    1  UNL1        0.1654
     22 C          10.7923    0.1869    0.0000 C.ar    1  UNL1        0.1654
     23 C          10.7884    1.1869    0.0000 C.ar    1  UNL1        0.2010
     24 C           3.7702   -1.8786    0.0000 C.ar    1  UNL1       -0.0442
     25 C           2.8641   -1.3648    0.0000 C.ar    1  UNL1        0.0236
     26 C           2.8641   -0.3231    0.0000 C.ar    1  UNL1        0.3372
     27 C           9.0487    3.1802    0.0000 C.3     1  UNL1        0.0790
     28 C          11.6641   -1.3098    0.0000 C.3     1  UNL1        0.0790
     29 H           8.1926    0.2968    0.0000 H       1  UNL1        0.0823
     30 H           8.1926   -1.9848    0.0000 H       1  UNL1        0.0798
     31 H           9.6704   -1.9781    0.0000 H       1  UNL1        0.0595
     32 H           9.2746   -1.2863    0.0000 H       1  UNL1        0.0595
     33 H           9.9306   -0.9365    0.0000 H       1  UNL1        0.0659
     34 H           8.5183    1.4881    0.0000 H       1  UNL1        0.0659
     35 H           5.5301   -2.4640    0.0000 H       1  UNL1        0.0662
     36 H           5.5301    0.7760    0.0000 H       1  UNL1        0.0692
     37 H           9.5921   -3.1802    0.0000 H       1  UNL1        0.2096
     38 H           3.7773   -2.4986    0.0000 H       1  UNL1        0.0627
     39 H           2.3284   -1.6768    0.0000 H       1  UNL1        0.0689
     40 H          11.6501    2.3102    0.0000 H       1  UNL1        0.2924
     41 H           9.3566    3.7183    0.0000 H       1  UNL1        0.0660
     42 H           8.5106    3.4881    0.0000 H       1  UNL1        0.0660
     43 H           8.7408    2.6420    0.0000 H       1  UNL1        0.0660
     44 H          11.0441   -1.3122    0.0000 H       1  UNL1        0.0660
     45 H          11.6665   -1.9298    0.0000 H       1  UNL1        0.0660
     46 H          12.2841   -1.3074    0.0000 H       1  UNL1        0.0660
@<TRIPOS>BOND
     1     1     9    1
     2     1    13    1
     3     2    10    1
     4     2    14    1
     5     3    12    1
     6     3    37    1
     7     4    20   ar
     8     4    26   ar
     9     5    21    1
    10     5    27    1
    11     6    22    1
    12     6    28    1
    13     7    23    1
    14     7    40    1
    15     8    26    2
    16     9    10    1
    17     9    11    1
    18     9    29    1
    19    10    12    1
    20    10    30    1
    21    11    15   ar
    22    11    16   ar
    23    12    31    1
    24    12    32    1
    25    13    14   ar
    26    13    18   ar
    27    14    17   ar
    28    15    22   ar
    29    15    33    1
    30    16    21   ar
    31    16    34    1
    32    17    19   ar
    33    17    35    1
    34    18    20   ar
    35    18    36    1
    36    19    20   ar
    37    19    24   ar
    38    21    23   ar
    39    22    23   ar
    40    24    25   ar
    41    24    38    1
    42    25    26   ar
    43    25    39    1
    44    27    41    1
    45    27    42    1
    46    27    43    1
    47    28    44    1
    48    28    45    1
    49    28    46    1
