@<TRIPOS>MOLECULE
IMPHY002590
 24 25 0 0 0
SMALL
GASTEIGER

@<TRIPOS>ATOM
      1 CL          2.8660   -2.6867    0.0000 Cl      1  UNL1       -0.0814
      2 N           4.6783   -1.4915    0.0000 N.ar    1  UNL1       -0.3592
      3 N           6.2781    2.2253    0.0000 N.3     1  UNL1       -0.3297
      4 C           4.6783    0.1180    0.0000 C.ar    1  UNL1       -0.0211
      5 C           3.7320   -0.1867    0.0000 C.ar    1  UNL1        0.0043
      6 C           4.9889    1.0685    0.0000 C.3     1  UNL1       -0.0133
      7 C           3.7320   -1.1867    0.0000 C.ar    1  UNL1        0.0653
      8 C           5.2619   -0.6867    0.0000 C.ar    1  UNL1        0.0060
      9 C           5.9674    1.2747    0.0000 C.3     1  UNL1       -0.0029
     10 C           2.8660    0.3133    0.0000 C.ar    1  UNL1       -0.0522
     11 C           2.8660   -1.6867    0.0000 C.ar    1  UNL1        0.0648
     12 C           2.0000   -0.1867    0.0000 C.ar    1  UNL1       -0.0597
     13 C           2.0000   -1.1867    0.0000 C.ar    1  UNL1       -0.0414
     14 H           4.9684    1.6882    0.0000 H       1  UNL1        0.0326
     15 H           4.3751    1.1559    0.0000 H       1  UNL1        0.0326
     16 H           5.8819   -0.6867    0.0000 H       1  UNL1        0.0810
     17 H           4.8709   -2.0808    0.0000 H       1  UNL1        0.1654
     18 H           5.9880    0.6551    0.0000 H       1  UNL1        0.0425
     19 H           6.5812    1.1874    0.0000 H       1  UNL1        0.0425
     20 H           2.8660    0.9333    0.0000 H       1  UNL1        0.0624
     21 H           1.4631    0.1233    0.0000 H       1  UNL1        0.0618
     22 H           1.4631   -1.4967    0.0000 H       1  UNL1        0.0633
     23 H           6.8848    2.3531    0.0000 H       1  UNL1        0.1182
     24 H           5.8640    2.6867    0.0000 H       1  UNL1        0.1182
@<TRIPOS>BOND
     1     1    11    1
     2     2     7   ar
     3     2     8   ar
     4     2    17    1
     5     3     9    1
     6     3    23    1
     7     3    24    1
     8     4     5   ar
     9     4     6    1
    10     4     8   ar
    11     5     7   ar
    12     5    10   ar
    13     6     9    1
    14     6    14    1
    15     6    15    1
    16     7    11   ar
    17     8    16    1
    18     9    18    1
    19     9    19    1
    20    10    12   ar
    21    10    20    1
    22    11    13   ar
    23    12    13   ar
    24    12    21    1
    25    13    22    1
