@<TRIPOS>MOLECULE
IMPHY006363
 59 63 0 0 0
SMALL
GASTEIGER

@<TRIPOS>ATOM
      1 O           4.6000    0.6219    0.0000 O.3     1  UNL1       -0.4420
      2 O           9.5828    2.6016    0.0000 O.2     1  UNL1       -0.2756
      3 O           2.8690    0.5615    0.0000 O.2     1  UNL1       -0.2456
      4 N           3.7360    2.1805    0.0000 N.3     1  UNL1       -0.2642
      5 N           7.8349    2.3216    0.0000 N.am    1  UNL1       -0.2977
      6 C           5.7861    2.4870    0.0000 C.3     1  UNL1        0.0291
      7 C           6.0449    3.4529    0.0000 C.3     1  UNL1       -0.0090
      8 C           4.0117    3.1418    0.0000 C.3     1  UNL1        0.0179
      9 C           5.3083    4.4355    0.0000 C.3     1  UNL1       -0.0381
     10 C           7.0578    1.6923    0.0000 C.3     1  UNL1        0.0335
     11 C           4.5650    1.6213    0.0000 C.3     1  UNL1        0.1621
     12 C           7.4765    3.2552    0.0000 C.3     1  UNL1        0.0192
     13 C           3.2997    3.9021    0.0000 C.3     1  UNL1       -0.0369
     14 C           7.2048    0.6611    0.0000 C.3     1  UNL1       -0.0334
     15 C           2.7293    1.9129    0.0000 C.3     1  UNL1        0.0024
     16 C           2.2871    3.6579    0.0000 C.3     1  UNL1       -0.0505
     17 C           2.0000    2.6566    0.0000 C.3     1  UNL1       -0.0400
     18 C           8.1744    0.2803    0.0000 C.3     1  UNL1       -0.0431
     19 C           8.8130    1.9634    0.0000 C.2     1  UNL1        0.2158
     20 C           8.9839    0.9359    0.0000 C.3     1  UNL1        0.0242
     21 C           3.7519    0.0920    0.0000 C.2     1  UNL1        0.3334
     22 C           3.7868   -0.9074    0.0000 C.2     1  UNL1        0.0231
     23 C           2.9388   -1.4373    0.0000 C.2     1  UNL1       -0.0478
     24 C           2.9737   -2.4367    0.0000 C.ar    1  UNL1       -0.0248
     25 C           2.1256   -2.9666    0.0000 C.ar    1  UNL1       -0.0546
     26 C           3.8566   -2.9062    0.0000 C.ar    1  UNL1       -0.0546
     27 C           2.1605   -3.9660    0.0000 C.ar    1  UNL1       -0.0612
     28 C           3.8915   -3.9056    0.0000 C.ar    1  UNL1       -0.0612
     29 C           3.0435   -4.4355    0.0000 C.ar    1  UNL1       -0.0617
     30 H           6.4747    2.9852    0.0000 H       1  UNL1        0.0368
     31 H           6.0511    2.6029    0.0000 H       1  UNL1        0.0331
     32 H           4.2460    3.9588    0.0000 H       1  UNL1        0.0467
     33 H           5.6261    4.9678    0.0000 H       1  UNL1        0.0274
     34 H           4.6951    4.5274    0.0000 H       1  UNL1        0.0274
     35 H           6.3972    1.1574    0.0000 H       1  UNL1        0.0505
     36 H           3.8216    1.2092    0.0000 H       1  UNL1        0.0915
     37 H           8.0844    3.3776    0.0000 H       1  UNL1        0.0468
     38 H           7.4575    3.8749    0.0000 H       1  UNL1        0.0468
     39 H           3.8181    4.2422    0.0000 H       1  UNL1        0.0280
     40 H           3.0534    4.4711    0.0000 H       1  UNL1        0.0280
     41 H           6.5851    0.6799    0.0000 H       1  UNL1        0.0283
     42 H           7.0803    0.0538    0.0000 H       1  UNL1        0.0283
     43 H           2.2189    1.5610    0.0000 H       1  UNL1        0.0428
     44 H           2.9888    1.3498    0.0000 H       1  UNL1        0.0428
     45 H           2.2470    4.2766    0.0000 H       1  UNL1        0.0266
     46 H           1.6707    3.7243    0.0000 H       1  UNL1        0.0266
     47 H           1.4420    2.9270    0.0000 H       1  UNL1        0.0278
     48 H           1.6382    2.1532    0.0000 H       1  UNL1        0.0278
     49 H           7.8523   -0.2494    0.0000 H       1  UNL1        0.0270
     50 H           8.6412   -0.1276    0.0000 H       1  UNL1        0.0270
     51 H           9.2858    0.3944    0.0000 H       1  UNL1        0.0358
     52 H           9.5690    1.1407    0.0000 H       1  UNL1        0.0358
     53 H           4.3342   -1.1985    0.0000 H       1  UNL1        0.0689
     54 H           2.3913   -1.1462    0.0000 H       1  UNL1        0.0626
     55 H           1.5782   -2.6756    0.0000 H       1  UNL1        0.0623
     56 H           4.3824   -2.5776    0.0000 H       1  UNL1        0.0623
     57 H           1.6347   -4.2946    0.0000 H       1  UNL1        0.0618
     58 H           4.4389   -4.1966    0.0000 H       1  UNL1        0.0618
     59 H           3.0651   -5.0551    0.0000 H       1  UNL1        0.0618
@<TRIPOS>BOND
     1     1    11    1
     2     1    21    1
     3     2    19    2
     4     3    21    2
     5     4     8    1
     6     4    11    1
     7     4    15    1
     8     5    10    1
     9     5    12    1
    10     5    19   am
    11     6     9    1
    12     6    10    1
    13     6    11    1
    14     6    30    1
    15     7     8    1
    16     7     9    1
    17     7    12    1
    18     7    31    1
    19     8    13    1
    20     8    32    1
    21     9    33    1
    22     9    34    1
    23    10    14    1
    24    10    35    1
    25    11    36    1
    26    12    37    1
    27    12    38    1
    28    13    16    1
    29    13    39    1
    30    13    40    1
    31    14    18    1
    32    14    41    1
    33    14    42    1
    34    15    17    1
    35    15    43    1
    36    15    44    1
    37    16    17    1
    38    16    45    1
    39    16    46    1
    40    17    47    1
    41    17    48    1
    42    18    20    1
    43    18    49    1
    44    18    50    1
    45    19    20    1
    46    20    51    1
    47    20    52    1
    48    21    22    1
    49    22    23    2
    50    22    53    1
    51    23    24    1
    52    23    54    1
    53    24    25   ar
    54    24    26   ar
    55    25    27   ar
    56    25    55    1
    57    26    28   ar
    58    26    56    1
    59    27    29   ar
    60    27    57    1
    61    28    29   ar
    62    28    58    1
    63    29    59    1
