@<TRIPOS>MOLECULE
IMPHY004837
 75 79 0 0 0
SMALL
GASTEIGER

@<TRIPOS>ATOM
      1 O           7.7331    0.3858    0.0000 O.3     1  UNL1       -0.3313
      2 O           4.2690   -0.6142    0.0000 O.3     1  UNL1       -0.3405
      3 O           6.0010   -0.6142    0.0000 O.3     1  UNL1       -0.3460
      4 O           6.0010    2.3858    0.0000 O.3     1  UNL1       -0.3865
      5 O           9.4651    0.3858    0.0000 O.3     1  UNL1       -0.4600
      6 O           7.7331    3.3858    0.0000 O.3     1  UNL1       -0.3864
      7 O           9.4651    2.3858    0.0000 O.3     1  UNL1       -0.3829
      8 O           6.0010   -2.6142    0.0000 O.3     1  UNL1       -0.3841
      9 O           4.2690   -3.6142    0.0000 O.3     1  UNL1       -0.3864
     10 O           2.5369   -2.6142    0.0000 O.3     1  UNL1       -0.3865
     11 O           2.5369    0.3858    0.0000 O.3     1  UNL1       -0.3924
     12 O          11.2586    3.4376    0.0000 O.3     1  UNL1       -0.4950
     13 O          10.3519   -1.1214    0.0000 O.2     1  UNL1       -0.2864
     14 O          13.8389    0.8384    0.0000 O.2     1  UNL1       -0.2866
     15 O          11.1784   -2.6626    0.0000 O.3     1  UNL1       -0.5060
     16 C           6.8671    0.8858    0.0000 C.3     1  UNL1        0.1144
     17 C           6.8671    1.8858    0.0000 C.3     1  UNL1        0.1120
     18 C           7.7331    2.3858    0.0000 C.3     1  UNL1        0.1152
     19 C           8.5991    1.8858    0.0000 C.3     1  UNL1        0.1454
     20 C           5.1350   -2.1142    0.0000 C.3     1  UNL1        0.1341
     21 C           5.1350   -1.1142    0.0000 C.3     1  UNL1        0.1880
     22 C           4.2690   -2.6142    0.0000 C.3     1  UNL1        0.1141
     23 C           3.4030   -2.1142    0.0000 C.3     1  UNL1        0.1119
     24 C           3.4030   -1.1142    0.0000 C.3     1  UNL1        0.1130
     25 C           8.5991    0.8858    0.0000 C.3     1  UNL1        0.2308
     26 C           6.0010    0.3858    0.0000 C.3     1  UNL1        0.0796
     27 C           2.5369   -0.6142    0.0000 C.3     1  UNL1        0.0730
     28 C          10.3312    0.8858    0.0000 C.ar    1  UNL1        0.1390
     29 C          11.2352    0.3684    0.0000 C.ar    1  UNL1        0.0751
     30 C          12.1070    0.8584    0.0000 C.ar    1  UNL1        0.0401
     31 C          10.3352    1.9274    0.0000 C.ar    1  UNL1        0.0226
     32 C          11.2237   -0.6315    0.0000 C.2     1  UNL1        0.2015
     33 C          12.0839   -1.1415    0.0000 C.ar    1  UNL1        0.0745
     34 C          11.2432    2.4378    0.0000 C.ar    1  UNL1        0.1243
     35 C          12.1351    1.8996    0.0000 C.ar    1  UNL1       -0.0082
     36 C          12.9672    0.3484    0.0000 C.2     1  UNL1        0.1949
     37 C          12.9556   -0.6515    0.0000 C.ar    1  UNL1        0.0368
     38 C          12.0558   -2.1827    0.0000 C.ar    1  UNL1        0.1286
     39 C          13.8597   -1.1688    0.0000 C.ar    1  UNL1       -0.0471
     40 C          13.8557   -2.2105    0.0000 C.ar    1  UNL1       -0.0463
     41 C          12.9476   -2.7208    0.0000 C.ar    1  UNL1       -0.0165
     42 C          14.7178   -2.7171    0.0000 C.3     1  UNL1       -0.0396
     43 C          12.1323    3.9242    0.0000 C.3     1  UNL1        0.0788
     44 H           6.8671    0.2658    0.0000 H       1  UNL1        0.0647
     45 H           6.3301    1.5758    0.0000 H       1  UNL1        0.0647
     46 H           7.1962    2.6958    0.0000 H       1  UNL1        0.0648
     47 H           8.5991    2.5058    0.0000 H       1  UNL1        0.0683
     48 H           5.1350   -2.7342    0.0000 H       1  UNL1        0.0671
     49 H           5.6720   -1.4242    0.0000 H       1  UNL1        0.0937
     50 H           3.7320   -2.9242    0.0000 H       1  UNL1        0.0648
     51 H           2.8660   -1.8042    0.0000 H       1  UNL1        0.0647
     52 H           3.4030   -0.4942    0.0000 H       1  UNL1        0.0647
     53 H           8.5991    0.2658    0.0000 H       1  UNL1        0.1084
     54 H           5.7890    0.9684    0.0000 H       1  UNL1        0.0587
     55 H           5.3905    0.2781    0.0000 H       1  UNL1        0.0587
     56 H           1.9264   -0.5066    0.0000 H       1  UNL1        0.0584
     57 H           2.3249   -1.1968    0.0000 H       1  UNL1        0.0584
     58 H           5.4641    2.0758    0.0000 H       1  UNL1        0.2100
     59 H           7.1962    3.6958    0.0000 H       1  UNL1        0.2100
     60 H           9.4651    3.0058    0.0000 H       1  UNL1        0.2102
     61 H           6.5380   -2.3042    0.0000 H       1  UNL1        0.2101
     62 H           3.7320   -3.9242    0.0000 H       1  UNL1        0.2100
     63 H           2.0000   -2.3042    0.0000 H       1  UNL1        0.2100
     64 H           2.0000    0.6958    0.0000 H       1  UNL1        0.2095
     65 H           9.8006    2.2415    0.0000 H       1  UNL1        0.0691
     66 H          12.6791    2.1972    0.0000 H       1  UNL1        0.0661
     67 H          14.3966   -0.8589    0.0000 H       1  UNL1        0.0627
     68 H          12.9381   -3.3408    0.0000 H       1  UNL1        0.0657
     69 H          14.4037   -3.2517    0.0000 H       1  UNL1        0.0278
     70 H          15.2524   -3.0313    0.0000 H       1  UNL1        0.0278
     71 H          15.0320   -2.1826    0.0000 H       1  UNL1        0.0278
     72 H          12.4340    3.3826    0.0000 H       1  UNL1        0.0660
     73 H          12.6739    4.2259    0.0000 H       1  UNL1        0.0660
     74 H          11.8306    4.4659    0.0000 H       1  UNL1        0.0660
     75 H          11.1641   -3.2824    0.0000 H       1  UNL1        0.2922
@<TRIPOS>BOND
     1     1    16    1
     2     1    25    1
     3     2    21    1
     4     2    24    1
     5    21     3    1
     6     3    26    1
     7    17     4    1
     8     4    58    1
     9    25     5    1
    10     5    28    1
    11    18     6    1
    12     6    59    1
    13    19     7    1
    14     7    60    1
    15    20     8    1
    16     8    61    1
    17    22     9    1
    18     9    62    1
    19    23    10    1
    20    10    63    1
    21    11    27    1
    22    11    64    1
    23    12    34    1
    24    12    43    1
    25    13    32    2
    26    14    36    2
    27    15    38    1
    28    15    75    1
    29    16    17    1
    30    16    26    1
    31    16    44    1
    32    17    18    1
    33    17    45    1
    34    18    19    1
    35    18    46    1
    36    19    25    1
    37    19    47    1
    38    20    21    1
    39    20    22    1
    40    20    48    1
    41    21    49    1
    42    22    23    1
    43    22    50    1
    44    23    24    1
    45    23    51    1
    46    24    27    1
    47    24    52    1
    48    25    53    1
    49    26    54    1
    50    26    55    1
    51    27    56    1
    52    27    57    1
    53    28    29   ar
    54    28    31   ar
    55    29    30   ar
    56    29    32    1
    57    30    35   ar
    58    30    36    1
    59    31    34   ar
    60    31    65    1
    61    32    33    1
    62    33    37   ar
    63    33    38   ar
    64    34    35   ar
    65    35    66    1
    66    36    37    1
    67    37    39   ar
    68    38    41   ar
    69    39    40   ar
    70    39    67    1
    71    40    41   ar
    72    40    42    1
    73    41    68    1
    74    42    69    1
    75    42    70    1
    76    42    71    1
    77    43    72    1
    78    43    73    1
    79    43    74    1
