@<TRIPOS>MOLECULE
IMPHY016638
 39 40 0 0 0
SMALL
GASTEIGER

@<TRIPOS>ATOM
      1 O           4.5981    1.8623    0.0000 O.2     1  UNL1       -0.5032
      2 O           2.8660    0.8623    0.0000 O.2     1  UNL1       -0.2837
      3 C           5.4641   -0.6377    0.0000 C.3     1  UNL1       -0.0006
      4 C           6.3580   -1.1724    0.0000 C.3     1  UNL1       -0.0343
      5 C           5.4641    0.3623    0.0000 C.2     1  UNL1       -0.0179
      6 C           7.2641   -0.6585    0.0000 C.3     1  UNL1       -0.0494
      7 C           4.5981   -1.1377    0.0000 C.3     1  UNL1       -0.0145
      8 C           6.3580    0.8970    0.0000 C.3     1  UNL1       -0.0274
      9 C           7.2641    0.3831    0.0000 C.3     1  UNL1       -0.0490
     10 C           5.4641   -1.6377    0.0000 C.3     1  UNL1       -0.0552
     11 C           6.3465   -2.1723    0.0000 C.3     1  UNL1       -0.0616
     12 C           3.7320   -0.6377    0.0000 C.2     1  UNL1        0.0025
     13 C           4.5981    0.8623    0.0000 C.2     1  UNL1        0.1636
     14 C           3.7320    0.3623    0.0000 C.2     1  UNL1        0.2231
     15 C           2.8660   -1.1377    0.0000 C.2     1  UNL1       -0.0688
     16 C           2.8660   -2.1377    0.0000 C.3     1  UNL1       -0.0434
     17 C           2.0000   -0.6377    0.0000 C.3     1  UNL1       -0.0434
     18 H           6.8920   -1.4875    0.0000 H       1  UNL1        0.0307
     19 H           7.4732   -1.2422    0.0000 H       1  UNL1        0.0268
     20 H           7.8750   -0.5524    0.0000 H       1  UNL1        0.0268
     21 H           4.1996   -1.6126    0.0000 H       1  UNL1        0.0323
     22 H           4.9966   -1.6126    0.0000 H       1  UNL1        0.0323
     23 H           6.7517    1.3760    0.0000 H       1  UNL1        0.0311
     24 H           5.9534    1.3668    0.0000 H       1  UNL1        0.0311
     25 H           7.8750    0.2770    0.0000 H       1  UNL1        0.0268
     26 H           7.4732    0.9668    0.0000 H       1  UNL1        0.0268
     27 H           4.8441   -1.6377    0.0000 H       1  UNL1        0.0238
     28 H           5.4641   -2.2577    0.0000 H       1  UNL1        0.0238
     29 H           6.0841   -1.6377    0.0000 H       1  UNL1        0.0238
     30 H           5.7265   -2.1651    0.0000 H       1  UNL1        0.0233
     31 H           6.3393   -2.7923    0.0000 H       1  UNL1        0.0233
     32 H           6.9664   -2.1795    0.0000 H       1  UNL1        0.0233
     33 H           4.0611    2.1723    0.0000 H       1  UNL1        0.2923
     34 H           2.2460   -2.1377    0.0000 H       1  UNL1        0.0274
     35 H           2.8660   -2.7577    0.0000 H       1  UNL1        0.0274
     36 H           3.4860   -2.1377    0.0000 H       1  UNL1        0.0274
     37 H           2.3100   -0.1008    0.0000 H       1  UNL1        0.0274
     38 H           1.4631   -0.3277    0.0000 H       1  UNL1        0.0274
     39 H           1.6900   -1.1746    0.0000 H       1  UNL1        0.0274
@<TRIPOS>BOND
     1     1    13    1
     2     1    33    1
     3     2    14    2
     4     3     4    1
     5     3     5    1
     6     3     7    1
     7     3    10    1
     8     4     6    1
     9     4    11    1
    10     4    18    1
    11     5     8    1
    12     5    13    2
    13     6     9    1
    14     6    19    1
    15     6    20    1
    16     7    12    1
    17     7    21    1
    18     7    22    1
    19     8     9    1
    20     8    23    1
    21     8    24    1
    22     9    25    1
    23     9    26    1
    24    10    27    1
    25    10    28    1
    26    10    29    1
    27    11    30    1
    28    11    31    1
    29    11    32    1
    30    12    14    1
    31    12    15    2
    32    13    14    1
    33    15    16    1
    34    15    17    1
    35    16    34    1
    36    16    35    1
    37    16    36    1
    38    17    37    1
    39    17    38    1
    40    17    39    1
