@<TRIPOS>MOLECULE
IMPHY005839
 17 17 0 0 0
SMALL
GASTEIGER

@<TRIPOS>ATOM
      1 O           2.8660    2.0000    0.0000 O.co2   1  UNL1       -0.5444
      2 O           2.0000    0.5000    0.0000 O.co2   1  UNL1       -0.5444
      3 N           4.5981   -1.0000    0.0000 N.ar    1  UNL1       -0.2059
      4 C           3.7320   -0.5000    0.0000 C.ar    1  UNL1        0.1798
      5 C           3.7320    0.5000    0.0000 C.ar    1  UNL1        0.0609
      6 C           5.4641   -0.5000    0.0000 C.ar    1  UNL1        0.1710
      7 C           4.5981    1.0000    0.0000 C.ar    1  UNL1       -0.0416
      8 C           4.5981   -2.0000    0.0000 C.3     1  UNL1        0.1404
      9 C           5.4641    0.5000    0.0000 C.ar    1  UNL1        0.0027
     10 C           2.8660    1.0000    0.0000 C.2     1  UNL1        0.0773
     11 H           3.1951   -0.8100    0.0000 H       1  UNL1        0.1383
     12 H           6.0010   -0.8100    0.0000 H       1  UNL1        0.1376
     13 H           4.5981    1.6200    0.0000 H       1  UNL1        0.0628
     14 H           3.9781   -2.0000    0.0000 H       1  UNL1        0.0993
     15 H           4.5981   -2.6200    0.0000 H       1  UNL1        0.0993
     16 H           5.2181   -2.0000    0.0000 H       1  UNL1        0.0993
     17 H           6.0010    0.8100    0.0000 H       1  UNL1        0.0677
@<TRIPOS>UNITY_ATOM_ATTR
1 1
charge -1
3 1
charge 1
@<TRIPOS>BOND
     1     1    10   ar
     2     2    10   ar
     3     3     4   ar
     4     3     6   ar
     5     3     8    1
     6     4     5   ar
     7     4    11    1
     8     5     7   ar
     9     5    10    1
    10     6     9   ar
    11     6    12    1
    12     7     9   ar
    13     7    13    1
    14     8    14    1
    15     8    15    1
    16     8    16    1
    17     9    17    1
