@<TRIPOS>MOLECULE
IMPHY003462
 25 25 0 0 0
SMALL
GASTEIGER

@<TRIPOS>ATOM
      1 O           5.1043    1.4630    0.0000 O.2     1  UNL1       -0.2976
      2 N           2.8090   -0.4630    0.0000 N.3     1  UNL1       -0.3020
      3 C           3.6180    0.1248    0.0000 C.3     1  UNL1        0.0168
      4 C           3.3090    1.0758    0.0000 C.3     1  UNL1       -0.0358
      5 C           2.3090    1.0758    0.0000 C.3     1  UNL1       -0.0388
      6 C           2.0000    0.1248    0.0000 C.3     1  UNL1       -0.0011
      7 C           4.5691   -0.1843    0.0000 C.3     1  UNL1        0.0212
      8 C           2.8090   -1.4630    0.0000 C.3     1  UNL1       -0.0125
      9 C           5.3122    0.4849    0.0000 C.2     1  UNL1        0.1318
     10 C           6.2633    0.1759    0.0000 C.3     1  UNL1       -0.0060
     11 H           3.7150   -0.4876    0.0000 H       1  UNL1        0.0466
     12 H           3.9155    1.2047    0.0000 H       1  UNL1        0.0281
     13 H           3.2442    1.6924    0.0000 H       1  UNL1        0.0281
     14 H           2.3738    1.6924    0.0000 H       1  UNL1        0.0278
     15 H           1.7026    1.2047    0.0000 H       1  UNL1        0.0278
     16 H           1.4336    0.3769    0.0000 H       1  UNL1        0.0426
     17 H           1.6900   -0.4122    0.0000 H       1  UNL1        0.0426
     18 H           4.2780   -0.7317    0.0000 H       1  UNL1        0.0357
     19 H           5.0577   -0.5660    0.0000 H       1  UNL1        0.0357
     20 H           2.1890   -1.4630    0.0000 H       1  UNL1        0.0391
     21 H           2.8090   -2.0830    0.0000 H       1  UNL1        0.0391
     22 H           3.4290   -1.4630    0.0000 H       1  UNL1        0.0391
     23 H           6.0717   -0.4138    0.0000 H       1  UNL1        0.0306
     24 H           6.8530   -0.0157    0.0000 H       1  UNL1        0.0306
     25 H           6.4549    0.7655    0.0000 H       1  UNL1        0.0306
@<TRIPOS>BOND
     1     1     9    2
     2     2     3    1
     3     2     6    1
     4     2     8    1
     5     3     4    1
     6     3     7    1
     7     3    11    1
     8     4     5    1
     9     4    12    1
    10     4    13    1
    11     5     6    1
    12     5    14    1
    13     5    15    1
    14     6    16    1
    15     6    17    1
    16     7     9    1
    17     7    18    1
    18     7    19    1
    19     8    20    1
    20     8    21    1
    21     8    22    1
    22     9    10    1
    23    10    23    1
    24    10    24    1
    25    10    25    1
