@<TRIPOS>MOLECULE
IMPHY013490
 105 109 0 0 0
SMALL
GASTEIGER

@<TRIPOS>ATOM
      1 O          11.2957    4.6679    0.0000 O.3     1  UNL1       -0.3914
      2 O          12.3739    3.6539    0.0000 O.3     1  UNL1       -0.3806
      3 O           9.5407   -0.2530    0.0000 O.2     1  UNL1       -0.2968
      4 O          13.4321    1.5062    0.0000 O.2     1  UNL1       -0.2896
      5 O           6.8671   -1.8984    0.0000 O.2     1  UNL1       -0.4576
      6 O           5.0597   -0.8456    0.0000 O.2     1  UNL1       -0.2879
      7 O           5.1350   -1.8984    0.0000 O.3     1  UNL1       -0.3313
      8 O          16.1377    4.4524    0.0000 O.3     1  UNL1       -0.4546
      9 O           6.8671   -3.8984    0.0000 O.3     1  UNL1       -0.3829
     10 O           5.1350   -4.8984    0.0000 O.3     1  UNL1       -0.3864
     11 O           3.4030   -3.8984    0.0000 O.3     1  UNL1       -0.3865
     12 O           2.5369   -2.3984    0.0000 O.3     1  UNL1       -0.3924
     13 O          17.4134    3.2808    0.0000 O.2     1  UNL1       -0.2511
     14 C           9.5754    2.7468    0.0000 C.3     1  UNL1       -0.0195
     15 C          10.4356    2.2368    0.0000 C.3     1  UNL1       -0.0114
     16 C           8.7037    2.2568    0.0000 C.3     1  UNL1       -0.0187
     17 C          11.1803    2.8953    0.0000 C.3     1  UNL1        0.0271
     18 C           8.6921    1.2569    0.0000 C.3     1  UNL1        0.0398
     19 C           9.7959    3.7161    0.0000 C.3     1  UNL1       -0.0202
     20 C          10.7857    3.8077    0.0000 C.3     1  UNL1        0.0621
     21 C          10.4241    1.2369    0.0000 C.3     1  UNL1        0.0128
     22 C           9.5523    0.7469    0.0000 C.2     1  UNL1        0.1409
     23 C           7.7920    0.7326    0.0000 C.3     1  UNL1        0.0152
     24 C           8.7152    3.2568    0.0000 C.3     1  UNL1       -0.0587
     25 C           7.8160    2.8018    0.0000 C.3     1  UNL1       -0.0302
     26 C          11.2958    1.7268    0.0000 C.3     1  UNL1       -0.0582
     27 C          12.1564    2.6778    0.0000 C.3     1  UNL1        0.1304
     28 C           8.6806    0.2570    0.0000 C.3     1  UNL1       -0.0517
     29 C           6.8920    1.2569    0.0000 C.2     1  UNL1       -0.0524
     30 C           6.9040    2.2985    0.0000 C.2     1  UNL1       -0.0829
     31 C           5.9421    0.7326    0.0000 C.3     1  UNL1        0.0525
     32 C           7.8046   -0.3523    0.0000 C.2     1  UNL1       -0.0306
     33 C          11.9388    1.7018    0.0000 C.3     1  UNL1       -0.0284
     34 C          13.1324    2.4603    0.0000 C.2     1  UNL1        0.1873
     35 C           6.8671   -0.8984    0.0000 C.2     1  UNL1        0.1637
     36 C           5.9295   -0.3523    0.0000 C.2     1  UNL1        0.2066
     37 C           4.9422    0.7480    0.0000 C.3     1  UNL1       -0.0489
     38 C           5.4555    1.6062    0.0000 C.3     1  UNL1       -0.0489
     39 C          13.8088    3.1968    0.0000 C.2     1  UNL1       -0.0165
     40 C          14.7849    2.9793    0.0000 C.2     1  UNL1       -0.0381
     41 C           6.0010   -2.3984    0.0000 C.3     1  UNL1        0.2309
     42 C          15.4613    3.7158    0.0000 C.3     1  UNL1        0.1264
     43 C           6.0010   -3.3984    0.0000 C.3     1  UNL1        0.1454
     44 C           5.1350   -3.8984    0.0000 C.3     1  UNL1        0.1152
     45 C           4.2690   -2.3984    0.0000 C.3     1  UNL1        0.1140
     46 C           4.2690   -3.3984    0.0000 C.3     1  UNL1        0.1120
     47 C          16.1978    3.0394    0.0000 C.3     1  UNL1       -0.0214
     48 C          14.7247    4.3922    0.0000 C.3     1  UNL1       -0.0214
     49 C           3.4030   -1.8984    0.0000 C.3     1  UNL1        0.0731
     50 C          17.1137    4.2348    0.0000 C.2     1  UNL1        0.3047
     51 C          17.7901    4.9714    0.0000 C.3     1  UNL1        0.0333
     52 H           9.4348    1.8234    0.0000 H       1  UNL1        0.0319
     53 H          11.7220    3.5504    0.0000 H       1  UNL1        0.0363
     54 H           9.8039    4.3361    0.0000 H       1  UNL1        0.0296
     55 H           9.1802    3.7893    0.0000 H       1  UNL1        0.0296
     56 H          10.4543    4.3317    0.0000 H       1  UNL1        0.0597
     57 H          10.6294    0.6519    0.0000 H       1  UNL1        0.0347
     58 H          11.0358    1.3375    0.0000 H       1  UNL1        0.0347
     59 H           8.5314    0.3133    0.0000 H       1  UNL1        0.0399
     60 H           9.0314    3.7901    0.0000 H       1  UNL1        0.0235
     61 H           8.1819    3.5730    0.0000 H       1  UNL1        0.0235
     62 H           8.3991    2.7235    0.0000 H       1  UNL1        0.0235
     63 H           8.2260    3.2669    0.0000 H       1  UNL1        0.0311
     64 H           7.4279    3.2854    0.0000 H       1  UNL1        0.0311
     65 H          10.9796    1.1935    0.0000 H       1  UNL1        0.0235
     66 H          11.8291    1.4106    0.0000 H       1  UNL1        0.0235
     67 H          11.6120    2.2602    0.0000 H       1  UNL1        0.0235
     68 H           8.0606    0.2641    0.0000 H       1  UNL1        0.0239
     69 H           8.6734   -0.3630    0.0000 H       1  UNL1        0.0239
     70 H           9.3005    0.2498    0.0000 H       1  UNL1        0.0239
     71 H           6.3719    2.6167    0.0000 H       1  UNL1        0.0572
     72 H           8.3439   -0.6582    0.0000 H       1  UNL1        0.0616
     73 H          10.9919    5.2084    0.0000 H       1  UNL1        0.2098
     74 H          11.3337    1.8366    0.0000 H       1  UNL1        0.0262
     75 H          11.8040    1.0966    0.0000 H       1  UNL1        0.0262
     76 H          12.5440    1.5669    0.0000 H       1  UNL1        0.0262
     77 H          12.9654    3.8396    0.0000 H       1  UNL1        0.2108
     78 H           4.9518    1.3680    0.0000 H       1  UNL1        0.0242
     79 H           4.3223    0.7576    0.0000 H       1  UNL1        0.0242
     80 H           4.9326    0.1281    0.0000 H       1  UNL1        0.0242
     81 H           5.9971    1.9079    0.0000 H       1  UNL1        0.0242
     82 H           5.1538    2.1479    0.0000 H       1  UNL1        0.0242
     83 H           4.9138    1.3046    0.0000 H       1  UNL1        0.0242
     84 H          13.6230    3.7883    0.0000 H       1  UNL1        0.0651
     85 H          14.9707    2.3878    0.0000 H       1  UNL1        0.0612
     86 H           6.0010   -1.7784    0.0000 H       1  UNL1        0.1084
     87 H           6.0010   -4.0184    0.0000 H       1  UNL1        0.0683
     88 H           4.5981   -4.2084    0.0000 H       1  UNL1        0.0648
     89 H           4.2690   -1.7784    0.0000 H       1  UNL1        0.0647
     90 H           4.2690   -4.0184    0.0000 H       1  UNL1        0.0647
     91 H          15.7784    2.5828    0.0000 H       1  UNL1        0.0271
     92 H          16.6545    2.6201    0.0000 H       1  UNL1        0.0271
     93 H          16.6172    3.4961    0.0000 H       1  UNL1        0.0271
     94 H          15.1441    4.8489    0.0000 H       1  UNL1        0.0271
     95 H          14.2681    4.8116    0.0000 H       1  UNL1        0.0271
     96 H          14.3054    3.9356    0.0000 H       1  UNL1        0.0271
     97 H           6.8671   -4.5184    0.0000 H       1  UNL1        0.2102
     98 H           3.8015   -1.4235    0.0000 H       1  UNL1        0.0584
     99 H           3.0044   -1.4235    0.0000 H       1  UNL1        0.0584
    100 H           4.5981   -5.2084    0.0000 H       1  UNL1        0.2100
    101 H           3.4030   -4.5184    0.0000 H       1  UNL1        0.2100
    102 H           2.0000   -2.0884    0.0000 H       1  UNL1        0.2095
    103 H          18.2468    4.5520    0.0000 H       1  UNL1        0.0342
    104 H          18.2095    5.4280    0.0000 H       1  UNL1        0.0342
    105 H          17.3335    5.3907    0.0000 H       1  UNL1        0.0342
@<TRIPOS>BOND
     1    20     1    1
     2     1    73    1
     3    27     2    1
     4     2    77    1
     5     3    22    2
     6     4    34    2
     7     5    35    1
     8    41     5    1
     9     6    36    2
    10     7    41    1
    11     7    45    1
    12     8    42    1
    13     8    50    1
    14    43     9    1
    15     9    97    1
    16    44    10    1
    17    10   100    1
    18    46    11    1
    19    11   101    1
    20    12    49    1
    21    12   102    1
    22    13    50    2
    23    14    15    1
    24    14    16    1
    25    14    19    1
    26    14    24    1
    27    15    17    1
    28    15    21    1
    29    15    26    1
    30    16    18    1
    31    16    25    1
    32    16    52    1
    33    17    20    1
    34    17    27    1
    35    17    53    1
    36    18    22    1
    37    18    23    1
    38    18    28    1
    39    19    20    1
    40    19    54    1
    41    19    55    1
    42    20    56    1
    43    21    22    1
    44    21    57    1
    45    21    58    1
    46    23    29    1
    47    23    32    1
    48    23    59    1
    49    24    60    1
    50    24    61    1
    51    24    62    1
    52    25    30    1
    53    25    63    1
    54    25    64    1
    55    26    65    1
    56    26    66    1
    57    26    67    1
    58    27    33    1
    59    27    34    1
    60    28    68    1
    61    28    69    1
    62    28    70    1
    63    29    30    2
    64    29    31    1
    65    30    71    1
    66    31    36    1
    67    31    37    1
    68    31    38    1
    69    32    35    2
    70    32    72    1
    71    33    74    1
    72    33    75    1
    73    33    76    1
    74    34    39    1
    75    35    36    1
    76    37    78    1
    77    37    79    1
    78    37    80    1
    79    38    81    1
    80    38    82    1
    81    38    83    1
    82    39    40    2
    83    39    84    1
    84    40    42    1
    85    40    85    1
    86    41    43    1
    87    41    86    1
    88    42    47    1
    89    42    48    1
    90    43    44    1
    91    43    87    1
    92    44    46    1
    93    44    88    1
    94    45    46    1
    95    45    49    1
    96    45    89    1
    97    46    90    1
    98    47    91    1
    99    47    92    1
   100    47    93    1
   101    48    94    1
   102    48    95    1
   103    48    96    1
   104    49    98    1
   105    49    99    1
   106    50    51    1
   107    51   103    1
   108    51   104    1
   109    51   105    1
