@<TRIPOS>MOLECULE
IMPHY009949
 79 82 0 0 0
SMALL
GASTEIGER

@<TRIPOS>ATOM
      1 O           2.0000   -3.7639    0.0000 O.2     1  UNL1       -0.2968
      2 O           9.9391    1.7004    0.0000 O.3     1  UNL1       -0.4804
      3 O          10.2963    0.0056    0.0000 O.2     1  UNL1       -0.2507
      4 C           7.3931   -0.7115    0.0000 C.3     1  UNL1       -0.0191
      5 C           7.3931   -1.7115    0.0000 C.3     1  UNL1       -0.0051
      6 C           8.3393   -0.4068    0.0000 C.3     1  UNL1       -0.0219
      7 C           6.5271   -2.2115    0.0000 C.2     1  UNL1       -0.0633
      8 C           4.7510   -2.2184    0.0000 C.3     1  UNL1       -0.0067
      9 C           8.3393   -2.0163    0.0000 C.3     1  UNL1       -0.0431
     10 C           5.6610   -1.7115    0.0000 C.2     1  UNL1       -0.0635
     11 C           6.5271   -0.2115    0.0000 C.3     1  UNL1       -0.0428
     12 C           8.9229   -1.2115    0.0000 C.3     1  UNL1       -0.0481
     13 C           4.7430   -3.2600    0.0000 C.3     1  UNL1       -0.0198
     14 C           5.6610   -0.7115    0.0000 C.3     1  UNL1       -0.0304
     15 C           6.5431   -3.2530    0.0000 C.3     1  UNL1       -0.0306
     16 C           5.6451   -3.7808    0.0000 C.3     1  UNL1       -0.0448
     17 C           7.3931    0.2885    0.0000 C.3     1  UNL1       -0.0585
     18 C           7.3931   -2.7115    0.0000 C.3     1  UNL1       -0.0553
     19 C           8.6500    0.5437    0.0000 C.3     1  UNL1        0.0599
     20 C           3.8076   -3.8097    0.0000 C.3     1  UNL1        0.0270
     21 C           3.8242   -1.6543    0.0000 C.3     1  UNL1       -0.0369
     22 C           4.7587   -1.2184    0.0000 C.3     1  UNL1       -0.0555
     23 C           2.8763   -2.1822    0.0000 C.3     1  UNL1        0.0072
     24 C           2.8680   -3.2672    0.0000 C.2     1  UNL1        0.1392
     25 C           7.9821    1.2880    0.0000 C.3     1  UNL1       -0.0364
     26 C           3.3109   -4.6777    0.0000 C.3     1  UNL1       -0.0528
     27 C           4.3109   -4.6738    0.0000 C.3     1  UNL1       -0.0528
     28 C           9.6285    0.7499    0.0000 C.2     1  UNL1        0.3081
     29 C           8.2928    2.2385    0.0000 C.3     1  UNL1       -0.0338
     30 C           7.6249    2.9828    0.0000 C.2     1  UNL1       -0.0853
     31 C           7.9356    3.9334    0.0000 C.2     1  UNL1       -0.0796
     32 C           7.2678    4.6777    0.0000 C.3     1  UNL1       -0.0440
     33 C           8.9141    4.1396    0.0000 C.3     1  UNL1       -0.0440
     34 H           8.9518   -0.3106    0.0000 H       1  UNL1        0.0314
     35 H           8.0883   -2.5832    0.0000 H       1  UNL1        0.0274
     36 H           8.8767   -2.3255    0.0000 H       1  UNL1        0.0274
     37 H           6.9256    0.2634    0.0000 H       1  UNL1        0.0274
     38 H           6.1285    0.2634    0.0000 H       1  UNL1        0.0274
     39 H           9.3838   -1.6263    0.0000 H       1  UNL1        0.0269
     40 H           9.3838   -0.7968    0.0000 H       1  UNL1        0.0269
     41 H           4.7454   -3.8800    0.0000 H       1  UNL1        0.0318
     42 H           5.4490   -0.1289    0.0000 H       1  UNL1        0.0310
     43 H           5.0504   -0.8192    0.0000 H       1  UNL1        0.0310
     44 H           6.7612   -3.8334    0.0000 H       1  UNL1        0.0310
     45 H           7.1523   -3.1376    0.0000 H       1  UNL1        0.0310
     46 H           5.2478   -4.2568    0.0000 H       1  UNL1        0.0271
     47 H           6.0460   -4.2537    0.0000 H       1  UNL1        0.0271
     48 H           8.0131    0.2885    0.0000 H       1  UNL1        0.0235
     49 H           7.3931    0.9085    0.0000 H       1  UNL1        0.0235
     50 H           6.7731    0.2885    0.0000 H       1  UNL1        0.0235
     51 H           6.7731   -2.7115    0.0000 H       1  UNL1        0.0238
     52 H           7.3931   -3.3315    0.0000 H       1  UNL1        0.0238
     53 H           8.0131   -2.7115    0.0000 H       1  UNL1        0.0238
     54 H           8.0433    0.4159    0.0000 H       1  UNL1        0.0416
     55 H           4.2324   -1.1877    0.0000 H       1  UNL1        0.0278
     56 H           3.4343   -1.1723    0.0000 H       1  UNL1        0.0278
     57 H           5.3787   -1.2232    0.0000 H       1  UNL1        0.0238
     58 H           4.7635   -0.5984    0.0000 H       1  UNL1        0.0238
     59 H           4.1388   -1.2136    0.0000 H       1  UNL1        0.0238
     60 H           2.6718   -1.5970    0.0000 H       1  UNL1        0.0342
     61 H           2.2647   -2.2836    0.0000 H       1  UNL1        0.0342
     62 H           7.4352    1.5800    0.0000 H       1  UNL1        0.0276
     63 H           7.5996    0.8001    0.0000 H       1  UNL1        0.0276
     64 H           3.7752   -4.9859    0.0000 H       1  UNL1        0.0239
     65 H           4.6230   -5.2095    0.0000 H       1  UNL1        0.0239
     66 H           4.8466   -4.3617    0.0000 H       1  UNL1        0.0239
     67 H           2.7728   -4.3697    0.0000 H       1  UNL1        0.0239
     68 H           3.0030   -5.2158    0.0000 H       1  UNL1        0.0239
     69 H           3.8490   -4.9856    0.0000 H       1  UNL1        0.0239
     70 H           8.8397    1.9465    0.0000 H       1  UNL1        0.0308
     71 H           8.6753    2.7264    0.0000 H       1  UNL1        0.0308
     72 H          10.5458    1.8283    0.0000 H       1  UNL1        0.2951
     73 H           7.0183    2.8550    0.0000 H       1  UNL1        0.0571
     74 H           9.0420    3.5329    0.0000 H       1  UNL1        0.0274
     75 H           9.5208    4.2674    0.0000 H       1  UNL1        0.0274
     76 H           8.7863    4.7462    0.0000 H       1  UNL1        0.0274
     77 H           7.7292    5.0917    0.0000 H       1  UNL1        0.0274
     78 H           6.8537    5.1391    0.0000 H       1  UNL1        0.0274
     79 H           6.8063    4.2636    0.0000 H       1  UNL1        0.0274
@<TRIPOS>BOND
     1     1    24    2
     2     2    28    1
     3     2    72    1
     4     3    28    2
     5     4     5    1
     6     4     6    1
     7     4    11    1
     8     4    17    1
     9     5     7    1
    10     5     9    1
    11     5    18    1
    12     6    12    1
    13     6    19    1
    14     6    34    1
    15     7    10    2
    16     7    15    1
    17     8    10    1
    18     8    13    1
    19     8    21    1
    20     8    22    1
    21     9    12    1
    22     9    35    1
    23     9    36    1
    24    10    14    1
    25    11    14    1
    26    11    37    1
    27    11    38    1
    28    12    39    1
    29    12    40    1
    30    13    16    1
    31    13    20    1
    32    13    41    1
    33    14    42    1
    34    14    43    1
    35    15    16    1
    36    15    44    1
    37    15    45    1
    38    16    46    1
    39    16    47    1
    40    17    48    1
    41    17    49    1
    42    17    50    1
    43    18    51    1
    44    18    52    1
    45    18    53    1
    46    19    25    1
    47    19    28    1
    48    19    54    1
    49    20    24    1
    50    20    26    1
    51    20    27    1
    52    21    23    1
    53    21    55    1
    54    21    56    1
    55    22    57    1
    56    22    58    1
    57    22    59    1
    58    23    24    1
    59    23    60    1
    60    23    61    1
    61    25    29    1
    62    25    62    1
    63    25    63    1
    64    26    67    1
    65    26    68    1
    66    26    69    1
    67    27    64    1
    68    27    65    1
    69    27    66    1
    70    29    30    1
    71    29    70    1
    72    29    71    1
    73    30    31    2
    74    30    73    1
    75    31    32    1
    76    31    33    1
    77    32    77    1
    78    32    78    1
    79    32    79    1
    80    33    74    1
    81    33    75    1
    82    33    76    1
