@<TRIPOS>MOLECULE
IMPHY011025
 44 47 0 0 0
SMALL
GASTEIGER

@<TRIPOS>ATOM
      1 O           7.2764   -0.4324    0.0000 O.3     1  UNL1       -0.4797
      2 O           5.4641   -1.6276    0.0000 O.3     1  UNL1       -0.4914
      3 O          11.0270   -1.2307    0.0000 O.3     1  UNL1       -0.4526
      4 O          11.8318    0.1632    0.0000 O.3     1  UNL1       -0.4526
      5 C           7.2764    1.1771    0.0000 C.3     1  UNL1        0.0262
      6 C           7.8600    0.3724    0.0000 C.3     1  UNL1        0.1321
      7 C           6.3301    0.8724    0.0000 C.ar    1  UNL1        0.0052
      8 C           6.3301   -0.1276    0.0000 C.ar    1  UNL1        0.1664
      9 C           8.8600    0.3724    0.0000 C.ar    1  UNL1       -0.0031
     10 C           7.5870    2.1276    0.0000 C.3     1  UNL1       -0.0546
     11 C           5.4641    1.3724    0.0000 C.ar    1  UNL1       -0.0473
     12 C           5.4641   -0.6276    0.0000 C.ar    1  UNL1        0.1624
     13 C           9.3600   -0.4937    0.0000 C.ar    1  UNL1       -0.0095
     14 C           4.5981    0.8724    0.0000 C.ar    1  UNL1       -0.0214
     15 C           9.3600    1.2384    0.0000 C.ar    1  UNL1       -0.0514
     16 C           4.5981   -0.1276    0.0000 C.ar    1  UNL1       -0.0091
     17 C          10.3600   -0.4937    0.0000 C.ar    1  UNL1        0.1666
     18 C          10.8600    0.3724    0.0000 C.ar    1  UNL1        0.1662
     19 C          10.3600    1.2384    0.0000 C.ar    1  UNL1       -0.0158
     20 C           3.7320    1.3724    0.0000 C.2     1  UNL1       -0.0587
     21 C          11.9348   -0.8256    0.0000 C.3     1  UNL1        0.2332
     22 C           4.5981   -2.1276    0.0000 C.3     1  UNL1        0.0790
     23 C           2.8660    0.8724    0.0000 C.2     1  UNL1       -0.0865
     24 C           2.0000    1.3724    0.0000 C.3     1  UNL1       -0.0465
     25 H           6.8389    1.6165    0.0000 H       1  UNL1        0.0387
     26 H           8.1417   -0.1799    0.0000 H       1  UNL1        0.0790
     27 H           8.1763    1.9350    0.0000 H       1  UNL1        0.0237
     28 H           7.7796    2.7170    0.0000 H       1  UNL1        0.0237
     29 H           6.9977    2.3202    0.0000 H       1  UNL1        0.0237
     30 H           5.4641    1.9924    0.0000 H       1  UNL1        0.0627
     31 H           9.0500   -1.0306    0.0000 H       1  UNL1        0.0659
     32 H           9.0500    1.7753    0.0000 H       1  UNL1        0.0623
     33 H           4.0611   -0.4376    0.0000 H       1  UNL1        0.0661
     34 H          10.6700    1.7753    0.0000 H       1  UNL1        0.0655
     35 H           3.7320    1.9924    0.0000 H       1  UNL1        0.0620
     36 H          12.1266   -1.4151    0.0000 H       1  UNL1        0.1166
     37 H          12.5413   -0.6968    0.0000 H       1  UNL1        0.1166
     38 H           4.2881   -1.5907    0.0000 H       1  UNL1        0.0660
     39 H           4.0611   -2.4376    0.0000 H       1  UNL1        0.0660
     40 H           4.9081   -2.6646    0.0000 H       1  UNL1        0.0660
     41 H           2.8660    0.2524    0.0000 H       1  UNL1        0.0569
     42 H           2.3100    1.9093    0.0000 H       1  UNL1        0.0272
     43 H           1.4631    1.6824    0.0000 H       1  UNL1        0.0272
     44 H           1.6900    0.8354    0.0000 H       1  UNL1        0.0272
@<TRIPOS>BOND
     1     1     6    1
     2     1     8    1
     3     2    12    1
     4     2    22    1
     5     3    17    1
     6     3    21    1
     7     4    18    1
     8     4    21    1
     9     5     6    1
    10     5     7    1
    11     5    10    1
    12     5    25    1
    13     6     9    1
    14     6    26    1
    15     7     8   ar
    16     7    11   ar
    17     8    12   ar
    18     9    13   ar
    19     9    15   ar
    20    10    27    1
    21    10    28    1
    22    10    29    1
    23    11    14   ar
    24    11    30    1
    25    12    16   ar
    26    13    17   ar
    27    13    31    1
    28    14    16   ar
    29    14    20    1
    30    15    19   ar
    31    15    32    1
    32    16    33    1
    33    17    18   ar
    34    18    19   ar
    35    19    34    1
    36    20    23    2
    37    20    35    1
    38    21    36    1
    39    21    37    1
    40    22    38    1
    41    22    39    1
    42    22    40    1
    43    23    24    1
    44    23    41    1
    45    24    42    1
    46    24    43    1
    47    24    44    1
