@<TRIPOS>MOLECULE
IMPHY004187
 20 19 0 0 0
SMALL
GASTEIGER

@<TRIPOS>ATOM
      1 O           4.5981   -1.2500    0.0000 O.3     1  UNL1       -0.3862
      2 O           5.4641    1.2500    0.0000 O.3     1  UNL1       -0.3869
      3 O           3.7320    1.2500    0.0000 O.3     1  UNL1       -0.3819
      4 O           7.1962    0.2500    0.0000 O.3     1  UNL1       -0.3924
      5 O           2.0000    0.2500    0.0000 O.2     1  UNL1       -0.2982
      6 C           4.5981   -0.2500    0.0000 C.3     1  UNL1        0.1155
      7 C           5.4641    0.2500    0.0000 C.3     1  UNL1        0.1068
      8 C           3.7320    0.2500    0.0000 C.3     1  UNL1        0.1381
      9 C           6.3301   -0.2500    0.0000 C.3     1  UNL1        0.0727
     10 C           2.8660   -0.2500    0.0000 C.2     1  UNL1        0.1512
     11 H           5.1350   -0.5600    0.0000 H       1  UNL1        0.0650
     12 H           6.0010    0.5600    0.0000 H       1  UNL1        0.0643
     13 H           4.2690    0.5600    0.0000 H       1  UNL1        0.0697
     14 H           5.9316   -0.7249    0.0000 H       1  UNL1        0.0584
     15 H           6.7287   -0.7249    0.0000 H       1  UNL1        0.0584
     16 H           4.0611   -1.5600    0.0000 H       1  UNL1        0.2100
     17 H           2.8660   -0.8700    0.0000 H       1  UNL1        0.1055
     18 H           6.0010    1.5600    0.0000 H       1  UNL1        0.2100
     19 H           3.1951    1.5600    0.0000 H       1  UNL1        0.2105
     20 H           7.7331   -0.0600    0.0000 H       1  UNL1        0.2095
@<TRIPOS>BOND
     1     6     1    1
     2     1    16    1
     3     7     2    1
     4     2    18    1
     5     8     3    1
     6     3    19    1
     7     4     9    1
     8     4    20    1
     9     5    10    2
    10     6     7    1
    11     6     8    1
    12     6    11    1
    13     7     9    1
    14     7    12    1
    15     8    10    1
    16     8    13    1
    17     9    14    1
    18     9    15    1
    19    10    17    1
