@<TRIPOS>MOLECULE
IMPHY014238
 32 32 0 0 0
SMALL
GASTEIGER

@<TRIPOS>ATOM
      1 O           2.8660    0.7500    0.0000 O.3     1  UNL1       -0.3755
      2 C           4.5981    0.7500    0.0000 C.3     1  UNL1       -0.0085
      3 C           5.4641    0.2500    0.0000 C.3     1  UNL1       -0.0436
      4 C           4.5981    1.7500    0.0000 C.3     1  UNL1       -0.0412
      5 C           3.7320    0.2500    0.0000 C.3     1  UNL1        0.0797
      6 C           5.4641   -0.7500    0.0000 C.3     1  UNL1       -0.0316
      7 C           3.7320   -0.7500    0.0000 C.2     1  UNL1       -0.0564
      8 C           4.5981   -1.2500    0.0000 C.2     1  UNL1       -0.0741
      9 C           5.4641    2.2500    0.0000 C.3     1  UNL1       -0.0623
     10 C           3.7320    2.2500    0.0000 C.3     1  UNL1       -0.0623
     11 C           4.5981   -2.2500    0.0000 C.3     1  UNL1       -0.0437
     12 C           2.0000    0.2500    0.0000 C.3     1  UNL1        0.0372
     13 H           5.1350    1.0600    0.0000 H       1  UNL1        0.0331
     14 H           6.0747    0.1423    0.0000 H       1  UNL1        0.0272
     15 H           5.6762    0.8326    0.0000 H       1  UNL1        0.0272
     16 H           4.5981    2.3700    0.0000 H       1  UNL1        0.0299
     17 H           3.7320    0.8700    0.0000 H       1  UNL1        0.0643
     18 H           5.6762   -1.3326    0.0000 H       1  UNL1        0.0310
     19 H           6.0747   -0.6423    0.0000 H       1  UNL1        0.0310
     20 H           3.1951   -1.0600    0.0000 H       1  UNL1        0.0597
     21 H           5.7741    1.7131    0.0000 H       1  UNL1        0.0232
     22 H           6.0010    2.5600    0.0000 H       1  UNL1        0.0232
     23 H           5.1541    2.7869    0.0000 H       1  UNL1        0.0232
     24 H           4.0420    2.7869    0.0000 H       1  UNL1        0.0232
     25 H           3.1951    2.5600    0.0000 H       1  UNL1        0.0232
     26 H           3.4220    1.7131    0.0000 H       1  UNL1        0.0232
     27 H           3.9781   -2.2500    0.0000 H       1  UNL1        0.0274
     28 H           4.5981   -2.8700    0.0000 H       1  UNL1        0.0274
     29 H           5.2181   -2.2500    0.0000 H       1  UNL1        0.0274
     30 H           1.6900    0.7869    0.0000 H       1  UNL1        0.0524
     31 H           1.4631   -0.0600    0.0000 H       1  UNL1        0.0524
     32 H           2.3100   -0.2869    0.0000 H       1  UNL1        0.0524
@<TRIPOS>BOND
     1     1     5    1
     2     1    12    1
     3     2     3    1
     4     2     4    1
     5     2     5    1
     6     2    13    1
     7     3     6    1
     8     3    14    1
     9     3    15    1
    10     4     9    1
    11     4    10    1
    12     4    16    1
    13     5     7    1
    14     5    17    1
    15     6     8    1
    16     6    18    1
    17     6    19    1
    18     7     8    2
    19     7    20    1
    20     8    11    1
    21     9    21    1
    22     9    22    1
    23     9    23    1
    24    10    24    1
    25    10    25    1
    26    10    26    1
    27    11    27    1
    28    11    28    1
    29    11    29    1
    30    12    30    1
    31    12    31    1
    32    12    32    1
