@<TRIPOS>MOLECULE
IMPHY010315
 38 40 0 0 0
SMALL
GASTEIGER

@<TRIPOS>ATOM
      1 O           7.8167    1.7623    0.0000 O.3     1  UNL1       -0.4906
      2 O           9.5984    0.7519    0.0000 O.3     1  UNL1       -0.4885
      3 O           6.0682    1.7277    0.0000 O.2     1  UNL1       -0.2864
      4 O           4.3198    1.7623    0.0000 O.3     1  UNL1       -0.5028
      5 O           6.0682   -2.2723    0.0000 O.2     1  UNL1       -0.2866
      6 O           2.5381    0.7519    0.0000 O.3     1  UNL1       -0.5031
      7 O           9.5984   -1.2964    0.0000 O.3     1  UNL1       -0.5032
      8 C           6.9343    0.2277    0.0000 C.ar    1  UNL1        0.0786
      9 C           5.2022    0.2277    0.0000 C.ar    1  UNL1        0.0782
     10 C           5.2022   -0.7723    0.0000 C.ar    1  UNL1        0.0371
     11 C           6.9343   -0.7723    0.0000 C.ar    1  UNL1        0.0403
     12 C           6.0682    0.7277    0.0000 C.2     1  UNL1        0.2018
     13 C           6.0682   -1.2723    0.0000 C.2     1  UNL1        0.1949
     14 C           7.8282    0.7624    0.0000 C.ar    1  UNL1        0.1767
     15 C           4.3083    0.7624    0.0000 C.ar    1  UNL1        0.1702
     16 C           4.3083   -1.3070    0.0000 C.ar    1  UNL1       -0.0436
     17 C           3.4022   -0.7931    0.0000 C.ar    1  UNL1       -0.0047
     18 C           7.8282   -1.3070    0.0000 C.ar    1  UNL1       -0.0048
     19 C           3.4022    0.2485    0.0000 C.ar    1  UNL1        0.1620
     20 C           8.7343    0.2485    0.0000 C.ar    1  UNL1        0.2040
     21 C           8.7343   -0.7931    0.0000 C.ar    1  UNL1        0.1629
     22 C           2.5381   -1.2964    0.0000 C.3     1  UNL1       -0.0361
     23 C           8.6768    2.2723    0.0000 C.3     1  UNL1        0.0790
     24 C          10.4663    0.2552    0.0000 C.3     1  UNL1        0.0791
     25 H           4.3154   -1.9269    0.0000 H       1  UNL1        0.0629
     26 H           7.8210   -1.9269    0.0000 H       1  UNL1        0.0662
     27 H           2.2261   -0.7607    0.0000 H       1  UNL1        0.0279
     28 H           2.0024   -1.6085    0.0000 H       1  UNL1        0.0279
     29 H           2.8502   -1.8322    0.0000 H       1  UNL1        0.0279
     30 H           3.7865    2.0785    0.0000 H       1  UNL1        0.2923
     31 H           2.0000    0.4439    0.0000 H       1  UNL1        0.2923
     32 H           9.5960   -1.9164    0.0000 H       1  UNL1        0.2923
     33 H           8.9930    1.7390    0.0000 H       1  UNL1        0.0660
     34 H           9.2102    2.5885    0.0000 H       1  UNL1        0.0660
     35 H           8.3606    2.8056    0.0000 H       1  UNL1        0.0660
     36 H          10.1584   -0.2829    0.0000 H       1  UNL1        0.0660
     37 H          11.0045   -0.0527    0.0000 H       1  UNL1        0.0660
     38 H          10.7743    0.7933    0.0000 H       1  UNL1        0.0660
@<TRIPOS>BOND
     1     1    14    1
     2     1    23    1
     3     2    20    1
     4     2    24    1
     5     3    12    2
     6     4    15    1
     7     4    30    1
     8     5    13    2
     9     6    19    1
    10     6    31    1
    11     7    21    1
    12     7    32    1
    13     8    11   ar
    14     8    12    1
    15     8    14   ar
    16     9    10   ar
    17     9    12    1
    18     9    15   ar
    19    10    13    1
    20    10    16   ar
    21    11    13    1
    22    11    18   ar
    23    14    20   ar
    24    15    19   ar
    25    16    17   ar
    26    16    25    1
    27    17    19   ar
    28    17    22    1
    29    18    21   ar
    30    18    26    1
    31    20    21   ar
    32    22    27    1
    33    22    28    1
    34    22    29    1
    35    23    33    1
    36    23    34    1
    37    23    35    1
    38    24    36    1
    39    24    37    1
    40    24    38    1
