@<TRIPOS>MOLECULE
IMPHY008913
 34 36 0 0 0
SMALL
GASTEIGER

@<TRIPOS>ATOM
      1 O           5.5301    0.0173    0.0000 O.3     1  UNL1       -0.4810
      2 O           7.3424   -1.1779    0.0000 O.2     1  UNL1       -0.4591
      3 O           3.7702   -0.9480    0.0000 O.2     1  UNL1       -0.4183
      4 O           2.0000   -0.9585    0.0000 O.2     1  UNL1       -0.2452
      5 C           6.3961   -1.4827    0.0000 C.ar    1  UNL1        0.1799
      6 C           5.5301   -0.9827    0.0000 C.ar    1  UNL1        0.2066
      7 C           6.3961   -2.4827    0.0000 C.ar    1  UNL1        0.0246
      8 C           4.6641   -1.4827    0.0000 C.ar    1  UNL1        0.1842
      9 C           4.6641   -2.4827    0.0000 C.ar    1  UNL1        0.0221
     10 C           5.5301   -2.9827    0.0000 C.ar    1  UNL1       -0.0401
     11 C           7.3424   -2.7874    0.0000 C.ar    1  UNL1       -0.0160
     12 C           3.7702   -3.0173    0.0000 C.ar    1  UNL1       -0.0442
     13 C           6.3961    0.5173    0.0000 C.3     1  UNL1        0.1084
     14 C           7.9260   -1.9827    0.0000 C.ar    1  UNL1        0.0933
     15 C           2.8641   -2.5035    0.0000 C.ar    1  UNL1        0.0236
     16 C           6.3961    1.5173    0.0000 C.2     1  UNL1       -0.0484
     17 C           2.8641   -1.4619    0.0000 C.ar    1  UNL1        0.3373
     18 C           7.2622    2.0173    0.0000 C.2     1  UNL1       -0.0765
     19 C           7.2622    3.0173    0.0000 C.3     1  UNL1       -0.0439
     20 C           8.1282    1.5173    0.0000 C.3     1  UNL1       -0.0439
     21 H           5.5301   -3.6027    0.0000 H       1  UNL1        0.0632
     22 H           7.5350   -3.3767    0.0000 H       1  UNL1        0.0655
     23 H           3.7773   -3.6373    0.0000 H       1  UNL1        0.0627
     24 H           6.6082   -0.0653    0.0000 H       1  UNL1        0.0742
     25 H           7.0067    0.6250    0.0000 H       1  UNL1        0.0742
     26 H           8.5460   -1.9827    0.0000 H       1  UNL1        0.1030
     27 H           2.3284   -2.8156    0.0000 H       1  UNL1        0.0689
     28 H           5.8592    1.8273    0.0000 H       1  UNL1        0.0605
     29 H           7.8822    3.0173    0.0000 H       1  UNL1        0.0274
     30 H           7.2622    3.6373    0.0000 H       1  UNL1        0.0274
     31 H           6.6422    3.0173    0.0000 H       1  UNL1        0.0274
     32 H           7.8182    0.9804    0.0000 H       1  UNL1        0.0274
     33 H           8.6651    1.2073    0.0000 H       1  UNL1        0.0274
     34 H           8.4382    2.0543    0.0000 H       1  UNL1        0.0274
@<TRIPOS>BOND
     1     1     6    1
     2     1    13    1
     3     2     5   ar
     4     2    14   ar
     5     3     8   ar
     6     3    17   ar
     7     4    17    2
     8     5     6   ar
     9     5     7   ar
    10     6     8   ar
    11     7    10   ar
    12     7    11   ar
    13     8     9   ar
    14     9    10   ar
    15     9    12   ar
    16    10    21    1
    17    11    14   ar
    18    11    22    1
    19    12    15   ar
    20    12    23    1
    21    13    16    1
    22    13    24    1
    23    13    25    1
    24    14    26    1
    25    15    17   ar
    26    15    27    1
    27    16    18    2
    28    16    28    1
    29    18    19    1
    30    18    20    1
    31    19    29    1
    32    19    30    1
    33    19    31    1
    34    20    32    1
    35    20    33    1
    36    20    34    1
