@<TRIPOS>MOLECULE
IMPHY005355
 33 34 0 0 0
SMALL
GASTEIGER

@<TRIPOS>ATOM
      1 O          10.3312   -0.0600    0.0000 O.3     1  UNL1       -0.5059
      2 O           9.4651    1.4400    0.0000 O.3     1  UNL1       -0.4770
      3 O           2.5369    1.4400    0.0000 O.3     1  UNL1       -0.5068
      4 O           7.7331    1.4400    0.0000 O.2     1  UNL1       -0.2450
      5 C           6.8671   -0.0600    0.0000 C.3     1  UNL1       -0.0228
      6 C           6.0010   -0.5600    0.0000 C.3     1  UNL1       -0.0237
      7 C           7.7331   -0.5600    0.0000 C.ar    1  UNL1       -0.0295
      8 C           5.1350   -0.0600    0.0000 C.ar    1  UNL1       -0.0468
      9 C           8.5991   -0.0600    0.0000 C.ar    1  UNL1        0.1033
     10 C           7.7331   -1.5600    0.0000 C.ar    1  UNL1       -0.0576
     11 C           5.1350    0.9400    0.0000 C.ar    1  UNL1       -0.0551
     12 C           4.2690   -0.5600    0.0000 C.ar    1  UNL1       -0.0551
     13 C           9.4651   -0.5600    0.0000 C.ar    1  UNL1        0.1311
     14 C           8.5991   -2.0600    0.0000 C.ar    1  UNL1       -0.0580
     15 C           9.4651   -1.5600    0.0000 C.ar    1  UNL1       -0.0193
     16 C           4.2690    1.4400    0.0000 C.ar    1  UNL1       -0.0199
     17 C           3.4030   -0.0600    0.0000 C.ar    1  UNL1       -0.0199
     18 C           8.5991    0.9400    0.0000 C.2     1  UNL1        0.3406
     19 C           3.4030    0.9400    0.0000 C.ar    1  UNL1        0.1169
     20 H           7.2656    0.4149    0.0000 H       1  UNL1        0.0317
     21 H           6.4685    0.4149    0.0000 H       1  UNL1        0.0317
     22 H           5.6025   -1.0350    0.0000 H       1  UNL1        0.0316
     23 H           6.3996   -1.0350    0.0000 H       1  UNL1        0.0316
     24 H           7.1962   -1.8700    0.0000 H       1  UNL1        0.0621
     25 H           5.6720    1.2500    0.0000 H       1  UNL1        0.0621
     26 H           4.2690   -1.1800    0.0000 H       1  UNL1        0.0621
     27 H           8.5991   -2.6800    0.0000 H       1  UNL1        0.0619
     28 H          10.0021   -1.8700    0.0000 H       1  UNL1        0.0654
     29 H           4.2690    2.0600    0.0000 H       1  UNL1        0.0654
     30 H           2.8660   -0.3700    0.0000 H       1  UNL1        0.0654
     31 H          10.8681   -0.3700    0.0000 H       1  UNL1        0.2922
     32 H           9.4651    2.0600    0.0000 H       1  UNL1        0.2954
     33 H           2.0000    1.1300    0.0000 H       1  UNL1        0.2921
@<TRIPOS>BOND
     1     1    13    1
     2     1    31    1
     3     2    18    1
     4     2    32    1
     5     3    19    1
     6     3    33    1
     7     4    18    2
     8     5     6    1
     9     5     7    1
    10     5    20    1
    11     5    21    1
    12     6     8    1
    13     6    22    1
    14     6    23    1
    15     7     9   ar
    16     7    10   ar
    17     8    11   ar
    18     8    12   ar
    19     9    13   ar
    20     9    18    1
    21    10    14   ar
    22    10    24    1
    23    11    16   ar
    24    11    25    1
    25    12    17   ar
    26    12    26    1
    27    13    15   ar
    28    14    15   ar
    29    14    27    1
    30    15    28    1
    31    16    19   ar
    32    16    29    1
    33    17    19   ar
    34    17    30    1
