@<TRIPOS>MOLECULE
IMPHY013401
 38 40 0 0 0
SMALL
GASTEIGER

@<TRIPOS>ATOM
      1 O           6.0682   -2.2327    0.0000 O.3     1  UNL1       -0.4866
      2 O           8.6663   -1.7327    0.0000 O.3     1  UNL1       -0.4907
      3 O          10.3984    1.2673    0.0000 O.3     1  UNL1       -0.4913
      4 O          10.3984   -0.7327    0.0000 O.3     1  UNL1       -0.5009
      5 O           2.5381   -2.2568    0.0000 O.3     1  UNL1       -0.5066
      6 C           6.9343   -0.7327    0.0000 C.2     1  UNL1        0.0010
      7 C           7.8003   -0.2327    0.0000 C.ar    1  UNL1        0.0269
      8 C           6.9343   -1.7327    0.0000 C.3     1  UNL1        0.1153
      9 C           5.2022   -0.7327    0.0000 C.ar    1  UNL1        0.0173
     10 C           6.0682   -0.2327    0.0000 C.2     1  UNL1       -0.0440
     11 C           5.2022   -1.7327    0.0000 C.ar    1  UNL1        0.1316
     12 C           8.6663   -0.7327    0.0000 C.ar    1  UNL1        0.1724
     13 C           7.8003    0.7673    0.0000 C.ar    1  UNL1       -0.0470
     14 C           4.3083   -0.1980    0.0000 C.ar    1  UNL1       -0.0476
     15 C           9.5323   -0.2327    0.0000 C.ar    1  UNL1        0.2016
     16 C           4.3083   -2.2673    0.0000 C.ar    1  UNL1        0.0221
     17 C           9.5323    0.7673    0.0000 C.ar    1  UNL1        0.1650
     18 C           8.6663    1.2673    0.0000 C.ar    1  UNL1       -0.0155
     19 C           3.4022   -1.7535    0.0000 C.ar    1  UNL1        0.1204
     20 C           3.4022   -0.7119    0.0000 C.ar    1  UNL1       -0.0194
     21 C           9.5323   -2.2327    0.0000 C.3     1  UNL1        0.0790
     22 C          10.3984    2.2673    0.0000 C.3     1  UNL1        0.0790
     23 H           7.1463   -2.3153    0.0000 H       1  UNL1        0.0748
     24 H           7.5449   -1.6250    0.0000 H       1  UNL1        0.0748
     25 H           6.0682    0.3873    0.0000 H       1  UNL1        0.0629
     26 H           7.2634    1.0773    0.0000 H       1  UNL1        0.0626
     27 H           4.3154    0.4220    0.0000 H       1  UNL1        0.0626
     28 H           4.3154   -2.8873    0.0000 H       1  UNL1        0.0691
     29 H           8.6663    1.8873    0.0000 H       1  UNL1        0.0655
     30 H           2.8665   -0.3998    0.0000 H       1  UNL1        0.0654
     31 H          10.9353   -0.4227    0.0000 H       1  UNL1        0.2924
     32 H           9.2224   -2.7696    0.0000 H       1  UNL1        0.0660
     33 H          10.0693   -2.5427    0.0000 H       1  UNL1        0.0660
     34 H           9.8424   -1.6957    0.0000 H       1  UNL1        0.0660
     35 H           2.0000   -1.9489    0.0000 H       1  UNL1        0.2921
     36 H          11.0184    2.2673    0.0000 H       1  UNL1        0.0660
     37 H          10.3984    2.8873    0.0000 H       1  UNL1        0.0660
     38 H           9.7784    2.2673    0.0000 H       1  UNL1        0.0660
@<TRIPOS>BOND
     1     1     8    1
     2     1    11    1
     3     2    12    1
     4     2    21    1
     5     3    17    1
     6     3    22    1
     7     4    15    1
     8     4    31    1
     9     5    19    1
    10     5    35    1
    11     6     7    1
    12     6     8    1
    13     6    10    2
    14     7    12   ar
    15     7    13   ar
    16     8    23    1
    17     8    24    1
    18     9    10    1
    19     9    11   ar
    20     9    14   ar
    21    10    25    1
    22    11    16   ar
    23    12    15   ar
    24    13    18   ar
    25    13    26    1
    26    14    20   ar
    27    14    27    1
    28    15    17   ar
    29    16    19   ar
    30    16    28    1
    31    17    18   ar
    32    18    29    1
    33    19    20   ar
    34    20    30    1
    35    21    32    1
    36    21    33    1
    37    21    34    1
    38    22    36    1
    39    22    37    1
    40    22    38    1
