@<TRIPOS>MOLECULE
IMPHY008907
 75 78 0 0 0
SMALL
GASTEIGER

@<TRIPOS>ATOM
      1 O           9.9229   -1.2105    0.0000 O.3     1  UNL1       -0.3914
      2 O           9.6005    0.2340    0.0000 O.3     1  UNL1       -0.3859
      3 O           8.2928    2.2395    0.0000 O.3     1  UNL1       -0.3890
      4 O           2.0000   -3.7629    0.0000 O.2     1  UNL1       -0.2927
      5 C           7.3931   -0.7105    0.0000 C.3     1  UNL1       -0.0210
      6 C           7.3931   -1.7105    0.0000 C.3     1  UNL1       -0.0297
      7 C           6.5271   -2.2105    0.0000 C.3     1  UNL1       -0.0337
      8 C           8.3393   -0.4058    0.0000 C.3     1  UNL1        0.0217
      9 C           5.6610   -1.7105    0.0000 C.3     1  UNL1       -0.0288
     10 C           6.5271   -0.2105    0.0000 C.3     1  UNL1       -0.0466
     11 C           8.3393   -2.0153    0.0000 C.3     1  UNL1       -0.0229
     12 C           8.9229   -1.2105    0.0000 C.3     1  UNL1        0.0615
     13 C           4.7510   -2.2174    0.0000 C.3     1  UNL1       -0.0072
     14 C           5.6610   -0.7105    0.0000 C.3     1  UNL1       -0.0487
     15 C           6.5431   -3.2520    0.0000 C.3     1  UNL1       -0.0459
     16 C           8.6500    0.5447    0.0000 C.3     1  UNL1        0.0946
     17 C           7.3931    0.2895    0.0000 C.3     1  UNL1       -0.0589
     18 C           4.7430   -3.2590    0.0000 C.2     1  UNL1       -0.0601
     19 C           5.6451   -3.7798    0.0000 C.3     1  UNL1       -0.0305
     20 C           3.8242   -1.6533    0.0000 C.3     1  UNL1       -0.0367
     21 C           4.7587   -1.2174    0.0000 C.3     1  UNL1       -0.0556
     22 C           8.9606    1.4952    0.0000 C.3     1  UNL1        0.0840
     23 C           7.6994    0.8554    0.0000 C.3     1  UNL1       -0.0333
     24 C           2.8763   -2.1812    0.0000 C.3     1  UNL1        0.0107
     25 C           3.8076   -3.8087    0.0000 C.2     1  UNL1       -0.0194
     26 C           9.9391    1.7014    0.0000 C.3     1  UNL1       -0.0239
     27 C           2.8680   -3.2662    0.0000 C.2     1  UNL1        0.1561
     28 C          10.2498    2.6520    0.0000 C.3     1  UNL1       -0.0483
     29 C          11.2283    2.8582    0.0000 C.3     1  UNL1       -0.0466
     30 C          11.5390    3.8087    0.0000 C.3     1  UNL1       -0.0627
     31 C          11.8961    2.1139    0.0000 C.3     1  UNL1       -0.0627
     32 H           7.4830   -2.5558    0.0000 H       1  UNL1        0.0310
     33 H           7.2664   -2.6298    0.0000 H       1  UNL1        0.0307
     34 H           7.7396    0.1965    0.0000 H       1  UNL1        0.0360
     35 H           6.3972   -1.2855    0.0000 H       1  UNL1        0.0312
     36 H           6.9256    0.2644    0.0000 H       1  UNL1        0.0271
     37 H           6.1285    0.2644    0.0000 H       1  UNL1        0.0271
     38 H           8.0883   -2.5822    0.0000 H       1  UNL1        0.0293
     39 H           8.8767   -2.3245    0.0000 H       1  UNL1        0.0293
     40 H           9.2046   -1.7628    0.0000 H       1  UNL1        0.0597
     41 H           5.4490   -0.1279    0.0000 H       1  UNL1        0.0268
     42 H           5.0504   -0.8182    0.0000 H       1  UNL1        0.0268
     43 H           6.7612   -3.8324    0.0000 H       1  UNL1        0.0271
     44 H           7.1523   -3.1366    0.0000 H       1  UNL1        0.0271
     45 H           8.0131    0.2895    0.0000 H       1  UNL1        0.0235
     46 H           7.3931    0.9095    0.0000 H       1  UNL1        0.0235
     47 H           6.7731    0.2895    0.0000 H       1  UNL1        0.0235
     48 H           5.2478   -4.2558    0.0000 H       1  UNL1        0.0310
     49 H           6.0460   -4.2527    0.0000 H       1  UNL1        0.0310
     50 H           4.2324   -1.1866    0.0000 H       1  UNL1        0.0278
     51 H           3.4343   -1.1713    0.0000 H       1  UNL1        0.0278
     52 H           5.3787   -1.2222    0.0000 H       1  UNL1        0.0238
     53 H           4.7635   -0.5974    0.0000 H       1  UNL1        0.0238
     54 H           4.1388   -1.2126    0.0000 H       1  UNL1        0.0238
     55 H           9.1532    2.0846    0.0000 H       1  UNL1        0.0622
     56 H           7.8921    1.4447    0.0000 H       1  UNL1        0.0258
     57 H           7.1101    1.0480    0.0000 H       1  UNL1        0.0258
     58 H           7.5068    0.2661    0.0000 H       1  UNL1        0.0258
     59 H          10.2329   -1.7475    0.0000 H       1  UNL1        0.2098
     60 H           2.6718   -1.5960    0.0000 H       1  UNL1        0.0345
     61 H           2.2647   -2.2826    0.0000 H       1  UNL1        0.0345
     62 H           3.8100   -4.4287    0.0000 H       1  UNL1        0.0652
     63 H          10.0620    0.6481    0.0000 H       1  UNL1        0.2103
     64 H           9.9597    1.0818    0.0000 H       1  UNL1        0.0291
     65 H          10.5530    1.6141    0.0000 H       1  UNL1        0.0291
     66 H           8.4854    2.8289    0.0000 H       1  UNL1        0.2099
     67 H          10.2292    3.2716    0.0000 H       1  UNL1        0.0269
     68 H           9.6360    2.7393    0.0000 H       1  UNL1        0.0269
     69 H          11.0357    2.2689    0.0000 H       1  UNL1        0.0295
     70 H          11.4347    1.6998    0.0000 H       1  UNL1        0.0232
     71 H          12.3102    1.6524    0.0000 H       1  UNL1        0.0232
     72 H          12.3576    2.5280    0.0000 H       1  UNL1        0.0232
     73 H          12.1283    3.6161    0.0000 H       1  UNL1        0.0232
     74 H          11.7316    4.3980    0.0000 H       1  UNL1        0.0232
     75 H          10.9496    4.0013    0.0000 H       1  UNL1        0.0232
@<TRIPOS>BOND
     1    12     1    1
     2     1    59    1
     3     2    16    1
     4     2    63    1
     5    22     3    1
     6     3    66    1
     7     4    27    2
     8     5     6    1
     9     5     8    1
    10     5    10    1
    11     5    17    1
    12     6     7    1
    13     6    11    1
    14     6    32    1
    15     7     9    1
    16     7    15    1
    17     7    33    1
    18     8    12    1
    19     8    16    1
    20     8    34    1
    21     9    13    1
    22     9    14    1
    23     9    35    1
    24    10    14    1
    25    10    36    1
    26    10    37    1
    27    11    12    1
    28    11    38    1
    29    11    39    1
    30    12    40    1
    31    13    18    1
    32    13    20    1
    33    13    21    1
    34    14    41    1
    35    14    42    1
    36    15    19    1
    37    15    43    1
    38    15    44    1
    39    16    22    1
    40    16    23    1
    41    17    45    1
    42    17    46    1
    43    17    47    1
    44    18    19    1
    45    18    25    2
    46    19    48    1
    47    19    49    1
    48    20    24    1
    49    20    50    1
    50    20    51    1
    51    21    52    1
    52    21    53    1
    53    21    54    1
    54    22    26    1
    55    22    55    1
    56    23    56    1
    57    23    57    1
    58    23    58    1
    59    24    27    1
    60    24    60    1
    61    24    61    1
    62    25    27    1
    63    25    62    1
    64    26    28    1
    65    26    64    1
    66    26    65    1
    67    28    29    1
    68    28    67    1
    69    28    68    1
    70    29    30    1
    71    29    31    1
    72    29    69    1
    73    30    73    1
    74    30    74    1
    75    30    75    1
    76    31    70    1
    77    31    71    1
    78    31    72    1
