@<TRIPOS>MOLECULE
IMPHY000394
 30 32 0 0 0
SMALL
GASTEIGER

@<TRIPOS>ATOM
      1 O           3.9061   -1.6643    0.0000 O.3     1  UNL1       -0.4778
      2 O           5.6500    1.4119    0.0000 O.2     1  UNL1       -0.4214
      3 O           5.6660   -2.6296    0.0000 O.3     1  UNL1       -0.5033
      4 O           6.5442    2.9396    0.0000 O.2     1  UNL1       -0.2452
      5 C           3.0000   -1.1504    0.0000 C.3     1  UNL1        0.1237
      6 C           4.8000   -0.1296    0.0000 C.ar    1  UNL1        0.0631
      7 C           4.8000   -1.1296    0.0000 C.ar    1  UNL1        0.1736
      8 C           3.0000   -0.1088    0.0000 C.2     1  UNL1       -0.0408
      9 C           2.0000   -1.1543    0.0000 C.3     1  UNL1       -0.0215
     10 C           2.5033   -2.0184    0.0000 C.3     1  UNL1       -0.0215
     11 C           3.9061    0.4050    0.0000 C.2     1  UNL1       -0.0476
     12 C           5.6660    0.3704    0.0000 C.ar    1  UNL1        0.1499
     13 C           6.5320   -0.1296    0.0000 C.ar    1  UNL1        0.0219
     14 C           5.6660   -1.6296    0.0000 C.ar    1  UNL1        0.1599
     15 C           6.5320   -1.1296    0.0000 C.ar    1  UNL1       -0.0058
     16 C           7.4420    0.3772    0.0000 C.ar    1  UNL1       -0.0442
     17 C           7.4501    1.4188    0.0000 C.ar    1  UNL1        0.0236
     18 C           6.5480    1.9396    0.0000 C.ar    1  UNL1        0.3372
     19 H           2.4643    0.2033    0.0000 H       1  UNL1        0.0611
     20 H           1.9976   -0.5343    0.0000 H       1  UNL1        0.0271
     21 H           1.3800   -1.1567    0.0000 H       1  UNL1        0.0271
     22 H           2.0024   -1.7743    0.0000 H       1  UNL1        0.0271
     23 H           1.9652   -1.7105    0.0000 H       1  UNL1        0.0271
     24 H           2.1954   -2.5565    0.0000 H       1  UNL1        0.0271
     25 H           3.0415   -2.3263    0.0000 H       1  UNL1        0.0271
     26 H           3.9132    1.0250    0.0000 H       1  UNL1        0.0624
     27 H           7.0690   -1.4396    0.0000 H       1  UNL1        0.0662
     28 H           7.9754    0.0610    0.0000 H       1  UNL1        0.0627
     29 H           7.9882    1.7268    0.0000 H       1  UNL1        0.0689
     30 H           6.2030   -2.9396    0.0000 H       1  UNL1        0.2923
@<TRIPOS>BOND
     1     1     5    1
     2     1     7    1
     3     2    12   ar
     4     2    18   ar
     5     3    14    1
     6     3    30    1
     7     4    18    2
     8     5     8    1
     9     5     9    1
    10     5    10    1
    11     6     7   ar
    12     6    11    1
    13     6    12   ar
    14     7    14   ar
    15     8    11    2
    16     8    19    1
    17     9    20    1
    18     9    21    1
    19     9    22    1
    20    10    23    1
    21    10    24    1
    22    10    25    1
    23    11    26    1
    24    12    13   ar
    25    13    15   ar
    26    13    16   ar
    27    14    15   ar
    28    15    27    1
    29    16    17   ar
    30    16    28    1
    31    17    18   ar
    32    17    29    1
