@<TRIPOS>MOLECULE
IMPHY017753
 39 39 0 0 0
SMALL
GASTEIGER

@<TRIPOS>ATOM
      1 O           3.7320   -0.2500    0.0000 O.3     1  UNL1       -0.4643
      2 O           5.4641   -0.2500    0.0000 O.2     1  UNL1       -0.2509
      3 C           5.4641    2.7500    0.0000 C.3     1  UNL1       -0.0526
      4 C           5.4641    1.7500    0.0000 C.3     1  UNL1       -0.0430
      5 C           6.3301    3.2500    0.0000 C.3     1  UNL1       -0.0533
      6 C           4.5981    1.2500    0.0000 C.3     1  UNL1        0.0449
      7 C           6.3301    4.2500    0.0000 C.3     1  UNL1       -0.0559
      8 C           7.1962    4.7500    0.0000 C.3     1  UNL1       -0.0653
      9 C           4.5981    0.2500    0.0000 C.2     1  UNL1        0.3071
     10 C           2.8660   -1.7500    0.0000 C.3     1  UNL1        0.0067
     11 C           3.7320   -1.2500    0.0000 C.3     1  UNL1        0.0964
     12 C           2.8660   -2.7500    0.0000 C.ar    1  UNL1       -0.0442
     13 C           2.0000   -3.2500    0.0000 C.ar    1  UNL1       -0.0585
     14 C           3.7320   -3.2500    0.0000 C.ar    1  UNL1       -0.0585
     15 C           2.0000   -4.2500    0.0000 C.ar    1  UNL1       -0.0615
     16 C           3.7320   -4.2500    0.0000 C.ar    1  UNL1       -0.0615
     17 C           2.8660   -4.7500    0.0000 C.ar    1  UNL1       -0.0617
     18 H           5.2520    3.3326    0.0000 H       1  UNL1        0.0265
     19 H           4.8535    2.6423    0.0000 H       1  UNL1        0.0265
     20 H           5.6762    1.1674    0.0000 H       1  UNL1        0.0270
     21 H           6.0747    1.8577    0.0000 H       1  UNL1        0.0270
     22 H           6.5422    2.6674    0.0000 H       1  UNL1        0.0265
     23 H           6.9407    3.3577    0.0000 H       1  UNL1        0.0265
     24 H           4.3860    1.8326    0.0000 H       1  UNL1        0.0377
     25 H           3.9875    1.1423    0.0000 H       1  UNL1        0.0377
     26 H           6.1181    4.8326    0.0000 H       1  UNL1        0.0263
     27 H           5.7196    4.1423    0.0000 H       1  UNL1        0.0263
     28 H           7.5062    4.2131    0.0000 H       1  UNL1        0.0230
     29 H           7.7331    5.0600    0.0000 H       1  UNL1        0.0230
     30 H           6.8862    5.2869    0.0000 H       1  UNL1        0.0230
     31 H           2.6540   -1.1674    0.0000 H       1  UNL1        0.0346
     32 H           2.2554   -1.8577    0.0000 H       1  UNL1        0.0346
     33 H           3.9441   -1.8326    0.0000 H       1  UNL1        0.0701
     34 H           4.3426   -1.1423    0.0000 H       1  UNL1        0.0701
     35 H           1.4631   -2.9400    0.0000 H       1  UNL1        0.0620
     36 H           4.2690   -2.9400    0.0000 H       1  UNL1        0.0620
     37 H           1.4631   -4.5600    0.0000 H       1  UNL1        0.0618
     38 H           4.2690   -4.5600    0.0000 H       1  UNL1        0.0618
     39 H           2.8660   -5.3700    0.0000 H       1  UNL1        0.0618
@<TRIPOS>BOND
     1     1     9    1
     2     1    11    1
     3     2     9    2
     4     3     4    1
     5     3     5    1
     6     3    18    1
     7     3    19    1
     8     4     6    1
     9     4    20    1
    10     4    21    1
    11     5     7    1
    12     5    22    1
    13     5    23    1
    14     6     9    1
    15     6    24    1
    16     6    25    1
    17     7     8    1
    18     7    26    1
    19     7    27    1
    20     8    28    1
    21     8    29    1
    22     8    30    1
    23    10    11    1
    24    10    12    1
    25    10    31    1
    26    10    32    1
    27    11    33    1
    28    11    34    1
    29    12    13   ar
    30    12    14   ar
    31    13    15   ar
    32    13    35    1
    33    14    16   ar
    34    14    36    1
    35    15    17   ar
    36    15    37    1
    37    16    17   ar
    38    16    38    1
    39    17    39    1
