@<TRIPOS>MOLECULE
IMPHY001272
 69 73 0 0 0
SMALL
GASTEIGER

@<TRIPOS>ATOM
      1 O          10.6260    1.1634    0.0000 O.2     1  UNL1       -0.4216
      2 O           7.1340    1.1981    0.0000 O.3     1  UNL1       -0.4946
      3 O           8.8660    4.1981    0.0000 O.3     1  UNL1       -0.4943
      4 O           5.5347   -2.9279    0.0000 O.2     1  UNL1       -0.4213
      5 O           5.5000    0.5641    0.0000 O.3     1  UNL1       -0.4943
      6 O          12.3962    1.1739    0.0000 O.2     1  UNL1       -0.2452
      7 O           2.5000   -1.1680    0.0000 O.3     1  UNL1       -0.4943
      8 O           5.5242   -4.6981    0.0000 O.2     1  UNL1       -0.2452
      9 C           8.0000   -0.3019    0.0000 C.3     1  UNL1       -0.0030
     10 C           8.8660    0.1981    0.0000 C.3     1  UNL1        0.0180
     11 C           8.0000   -1.3019    0.0000 C.3     1  UNL1       -0.0399
     12 C           8.8660   -1.8019    0.0000 C.3     1  UNL1       -0.0339
     13 C           7.5000    0.5641    0.0000 C.3     1  UNL1       -0.0552
     14 C           8.8660    1.1981    0.0000 C.ar    1  UNL1        0.0450
     15 C           9.7320   -0.3019    0.0000 C.2     1  UNL1       -0.0795
     16 C           7.0000   -0.3019    0.0000 C.2     1  UNL1       -0.0764
     17 C           9.7320   -1.3019    0.0000 C.2     1  UNL1       -0.0873
     18 C           9.7320    1.6981    0.0000 C.ar    1  UNL1        0.1498
     19 C           8.0000    1.6981    0.0000 C.ar    1  UNL1        0.1309
     20 C           6.5000   -1.1680    0.0000 C.2     1  UNL1       -0.0509
     21 C           9.7320    2.6981    0.0000 C.ar    1  UNL1        0.0597
     22 C           8.0000    2.6981    0.0000 C.ar    1  UNL1        0.0229
     23 C           8.8660    3.1981    0.0000 C.ar    1  UNL1        0.1342
     24 C           5.5000   -1.1680    0.0000 C.ar    1  UNL1        0.0595
     25 C          10.6260    3.2327    0.0000 C.ar    1  UNL1       -0.0408
     26 C           5.0000   -2.0340    0.0000 C.ar    1  UNL1        0.1531
     27 C           5.0000   -0.3019    0.0000 C.ar    1  UNL1        0.1342
     28 C          11.5321    1.6773    0.0000 C.ar    1  UNL1        0.3372
     29 C          11.5321    2.7189    0.0000 C.ar    1  UNL1        0.0237
     30 C           4.0000   -2.0340    0.0000 C.ar    1  UNL1        0.0600
     31 C           6.2680    1.6981    0.0000 C.3     1  UNL1        0.0788
     32 C           4.0000   -0.3019    0.0000 C.ar    1  UNL1        0.0232
     33 C           3.5000   -1.1680    0.0000 C.ar    1  UNL1        0.1342
     34 C           3.4653   -2.9279    0.0000 C.ar    1  UNL1       -0.0408
     35 C           8.0000    4.6981    0.0000 C.3     1  UNL1        0.0788
     36 C           5.0208   -3.8340    0.0000 C.ar    1  UNL1        0.3372
     37 C           3.9792   -3.8340    0.0000 C.ar    1  UNL1        0.0237
     38 C           5.0000    1.4301    0.0000 C.3     1  UNL1        0.0788
     39 C           2.0000   -0.3019    0.0000 C.3     1  UNL1        0.0788
     40 H           8.3291    0.5081    0.0000 H       1  UNL1        0.0402
     41 H           7.3894   -1.1943    0.0000 H       1  UNL1        0.0277
     42 H           7.7880   -1.8845    0.0000 H       1  UNL1        0.0277
     43 H           8.4675   -2.2769    0.0000 H       1  UNL1        0.0308
     44 H           9.2646   -2.2769    0.0000 H       1  UNL1        0.0308
     45 H           8.0369    0.8741    0.0000 H       1  UNL1        0.0238
     46 H           7.1900    1.1010    0.0000 H       1  UNL1        0.0238
     47 H           6.9631    0.2541    0.0000 H       1  UNL1        0.0238
     48 H          10.2690    0.0081    0.0000 H       1  UNL1        0.0575
     49 H           6.6900    0.2350    0.0000 H       1  UNL1        0.0578
     50 H          10.2690   -1.6119    0.0000 H       1  UNL1        0.0569
     51 H           6.8100   -1.7049    0.0000 H       1  UNL1        0.0623
     52 H           7.4631    3.0081    0.0000 H       1  UNL1        0.0691
     53 H          10.6188    3.8527    0.0000 H       1  UNL1        0.0628
     54 H          12.0678    3.0310    0.0000 H       1  UNL1        0.0689
     55 H           6.5780    2.2350    0.0000 H       1  UNL1        0.0660
     56 H           5.7310    2.0081    0.0000 H       1  UNL1        0.0660
     57 H           5.9580    1.1611    0.0000 H       1  UNL1        0.0660
     58 H           3.6900    0.2350    0.0000 H       1  UNL1        0.0691
     59 H           2.8454   -2.9208    0.0000 H       1  UNL1        0.0628
     60 H           8.3100    5.2350    0.0000 H       1  UNL1        0.0660
     61 H           7.4631    5.0081    0.0000 H       1  UNL1        0.0660
     62 H           7.6900    4.1611    0.0000 H       1  UNL1        0.0660
     63 H           3.6671   -4.3697    0.0000 H       1  UNL1        0.0689
     64 H           5.5369    1.7401    0.0000 H       1  UNL1        0.0660
     65 H           4.6900    1.9671    0.0000 H       1  UNL1        0.0660
     66 H           4.4631    1.1201    0.0000 H       1  UNL1        0.0660
     67 H           2.5369    0.0081    0.0000 H       1  UNL1        0.0660
     68 H           1.6900    0.2350    0.0000 H       1  UNL1        0.0660
     69 H           1.4631   -0.6119    0.0000 H       1  UNL1        0.0660
@<TRIPOS>BOND
     1     1    18   ar
     2     1    28   ar
     3     2    19    1
     4     2    31    1
     5     3    23    1
     6     3    35    1
     7     4    26   ar
     8     4    36   ar
     9     5    27    1
    10     5    38    1
    11     6    28    2
    12     7    33    1
    13     7    39    1
    14     8    36    2
    15     9    10    1
    16     9    11    1
    17     9    13    1
    18     9    16    1
    19    10    14    1
    20    10    15    1
    21    10    40    1
    22    11    12    1
    23    11    41    1
    24    11    42    1
    25    12    17    1
    26    12    43    1
    27    12    44    1
    28    13    45    1
    29    13    46    1
    30    13    47    1
    31    14    18   ar
    32    14    19   ar
    33    15    17    2
    34    15    48    1
    35    16    20    2
    36    16    49    1
    37    17    50    1
    38    18    21   ar
    39    19    22   ar
    40    20    24    1
    41    20    51    1
    42    21    23   ar
    43    21    25   ar
    44    22    23   ar
    45    22    52    1
    46    24    26   ar
    47    24    27   ar
    48    25    29   ar
    49    25    53    1
    50    26    30   ar
    51    27    32   ar
    52    28    29   ar
    53    29    54    1
    54    30    33   ar
    55    30    34   ar
    56    31    55    1
    57    31    56    1
    58    31    57    1
    59    32    33   ar
    60    32    58    1
    61    34    37   ar
    62    34    59    1
    63    35    60    1
    64    35    61    1
    65    35    62    1
    66    36    37   ar
    67    37    63    1
    68    38    64    1
    69    38    65    1
    70    38    66    1
    71    39    67    1
    72    39    68    1
    73    39    69    1
