@<TRIPOS>MOLECULE
IMPHY000853
 136 140 0 0 0
SMALL
GASTEIGER

@<TRIPOS>ATOM
      1 MG          6.5552   -0.1010    0.0000 Mg      1  UNL1        0.0000
      2 O           7.9052   -4.4180    0.0000 O.2     2  UNL2        0.0000
      3 O          10.1846   -3.5477    0.0000 O.3     2  UNL2        0.0000
      4 O          10.3902   -1.8279    0.0000 O.2     2  UNL2        0.0000
      5 O           2.0000    0.5907    0.0000 O.2     2  UNL2        0.0000
      6 O          12.8997   -0.5387    0.0000 O.3     2  UNL2        0.0000
      7 O          12.0336   -2.0387    0.0000 O.2     2  UNL2        0.0000
      8 N           7.9896   -0.0992    0.0000 N.2     2  UNL2        0.0000
      9 N           6.5770   -1.3875    0.0000 N.ar    2  UNL2       -1.0000
     10 N           6.5455    1.1892    0.0000 N.ar    2  UNL2       -1.0000
     11 N           5.1624   -0.0992    0.0000 N.2     2  UNL2        0.0000
     12 C           8.5551   -0.7906    0.0000 C.2     2  UNL2        0.0000
     13 C           9.4356   -0.5387    0.0000 C.3     2  UNL2        0.0000
     14 C           9.4356    0.4031    0.0000 C.3     2  UNL2        0.0000
     15 C           8.5236    0.6552    0.0000 C.2     2  UNL2        0.0000
     16 C           7.3314   -1.9531    0.0000 C.ar    2  UNL2        0.0000
     17 C           8.2733   -1.7011    0.0000 C.2     2  UNL2        0.0000
     18 C           5.8224   -1.9846    0.0000 C.ar    2  UNL2        0.0000
     19 C           7.3314    1.8177    0.0000 C.ar    2  UNL2        0.0000
     20 C           7.0478   -2.8635    0.0000 C.ar    2  UNL2        0.0000
     21 C           8.7980   -2.5098    0.0000 C.3     2  UNL2        0.0000
     22 C           4.6286   -0.8222    0.0000 C.2     2  UNL2        0.0000
     23 C           5.7910    1.7862    0.0000 C.ar    2  UNL2        0.0000
     24 C           4.6286    0.6238    0.0000 C.2     2  UNL2        0.0000
     25 C           8.2417    1.5341    0.0000 C.2     2  UNL2        0.0000
     26 C           6.1059   -2.8635    0.0000 C.ar    2  UNL2        0.0000
     27 C          10.3016   -1.0387    0.0000 C.3     2  UNL2        0.0000
     28 C           4.9120   -1.7011    0.0000 C.2     2  UNL2        0.0000
     29 C           7.8346   -3.4205    0.0000 C.2     2  UNL2        0.0000
     30 C           4.8806    1.5341    0.0000 C.2     2  UNL2        0.0000
     31 C          10.2313    1.0087    0.0000 C.3     2  UNL2        0.0000
     32 C           7.0164    2.6966    0.0000 C.ar    2  UNL2        0.0000
     33 C           3.7182   -0.5701    0.0000 C.2     2  UNL2        0.0000
     34 C           6.0744    2.6966    0.0000 C.ar    2  UNL2        0.0000
     35 C           3.7182    0.3717    0.0000 C.2     2  UNL2        0.0000
     36 C          11.1676   -0.5387    0.0000 C.3     2  UNL2        0.0000
     37 C           5.5173   -3.6719    0.0000 C.3     2  UNL2        0.0000
     38 C           9.7909   -2.6285    0.0000 C.2     2  UNL2        0.0000
     39 C           2.8521   -1.0701    0.0000 C.3     2  UNL2        0.0000
     40 C           7.5920    3.5143    0.0000 C.3     2  UNL2        0.0000
     41 C           5.4816    3.5019    0.0000 C.2     2  UNL2        0.0000
     42 C           2.9223    0.9772    0.0000 C.2     2  UNL2        0.0000
     43 C          12.0336   -1.0387    0.0000 C.2     2  UNL2        0.0000
     44 C           2.8521   -2.0701    0.0000 C.3     2  UNL2        0.0000
     45 C           5.8827    4.4180    0.0000 C.2     2  UNL2        0.0000
     46 C          11.1775   -3.6664    0.0000 C.3     2  UNL2        0.0000
     47 C          13.7657   -1.0387    0.0000 C.3     2  UNL2        0.0000
     48 C          14.6317   -0.5387    0.0000 C.2     2  UNL2        0.0000
     49 C          15.4977   -1.0388    0.0000 C.2     2  UNL2        0.0000
     50 C          16.3638   -0.5388    0.0000 C.3     2  UNL2        0.0000
     51 C          15.4977   -2.0388    0.0000 C.3     2  UNL2        0.0000
     52 C          17.2298   -1.0388    0.0000 C.3     2  UNL2        0.0000
     53 C          18.0958   -0.5388    0.0000 C.3     2  UNL2        0.0000
     54 C          18.9618   -1.0388    0.0000 C.3     2  UNL2        0.0000
     55 C          19.8279   -0.5388    0.0000 C.3     2  UNL2        0.0000
     56 C          20.6939   -1.0388    0.0000 C.3     2  UNL2        0.0000
     57 C          22.4259   -1.0389    0.0000 C.3     2  UNL2        0.0000
     58 C          21.5599   -0.5389    0.0000 C.3     2  UNL2        0.0000
     59 C          23.2920   -0.5389    0.0000 C.3     2  UNL2        0.0000
     60 C          18.9618   -2.0388    0.0000 C.3     2  UNL2        0.0000
     61 C          24.1580   -1.0389    0.0000 C.3     2  UNL2        0.0000
     62 C          22.4259   -2.0389    0.0000 C.3     2  UNL2        0.0000
     63 C          25.0240   -0.5389    0.0000 C.3     2  UNL2        0.0000
     64 C          25.8900   -1.0389    0.0000 C.3     2  UNL2        0.0000
     65 C          26.7561   -0.5389    0.0000 C.3     2  UNL2        0.0000
     66 C          25.8900   -2.0389    0.0000 C.3     2  UNL2        0.0000
     67 H           9.3598   -1.1540    0.0000 H       2  UNL2        0.0000
     68 H           9.3182    1.0119    0.0000 H       2  UNL2        0.0000
     69 H           9.1258   -1.9835    0.0000 H       2  UNL2        0.0000
     70 H           8.6782    1.9744    0.0000 H       2  UNL2        0.0000
     71 H           9.9030   -1.5136    0.0000 H       2  UNL2        0.0000
     72 H          10.7001   -1.5136    0.0000 H       2  UNL2        0.0000
     73 H           4.4758   -2.1417    0.0000 H       2  UNL2        0.0000
     74 H           4.4422    1.9726    0.0000 H       2  UNL2        0.0000
     75 H          10.6068    0.5153    0.0000 H       2  UNL2        0.0000
     76 H          10.7247    1.3842    0.0000 H       2  UNL2        0.0000
     77 H           9.8559    1.5021    0.0000 H       2  UNL2        0.0000
     78 H          11.5661   -0.0638    0.0000 H       2  UNL2        0.0000
     79 H          10.7691   -0.0637    0.0000 H       2  UNL2        0.0000
     80 H           5.0160   -3.3070    0.0000 H       2  UNL2        0.0000
     81 H           5.1523   -4.1731    0.0000 H       2  UNL2        0.0000
     82 H           6.0185   -4.0368    0.0000 H       2  UNL2        0.0000
     83 H           2.6401   -0.4875    0.0000 H       2  UNL2        0.0000
     84 H           2.2416   -1.1777    0.0000 H       2  UNL2        0.0000
     85 H           8.0990    3.1574    0.0000 H       2  UNL2        0.0000
     86 H           7.9489    4.0213    0.0000 H       2  UNL2        0.0000
     87 H           7.0850    3.8712    0.0000 H       2  UNL2        0.0000
     88 H           4.8654    3.4333    0.0000 H       2  UNL2        0.0000
     89 H           3.0007    1.5922    0.0000 H       2  UNL2        0.0000
     90 H           2.2321   -2.0701    0.0000 H       2  UNL2        0.0000
     91 H           2.8522   -2.6901    0.0000 H       2  UNL2        0.0000
     92 H           3.4721   -2.0700    0.0000 H       2  UNL2        0.0000
     93 H           6.4989    4.4866    0.0000 H       2  UNL2        0.0000
     94 H           5.5152    4.9173    0.0000 H       2  UNL2        0.0000
     95 H          11.1039   -4.2821    0.0000 H       2  UNL2        0.0000
     96 H          11.7931   -3.7400    0.0000 H       2  UNL2        0.0000
     97 H          11.2511   -3.0508    0.0000 H       2  UNL2        0.0000
     98 H          13.3671   -1.5137    0.0000 H       2  UNL2        0.0000
     99 H          14.1642   -1.5137    0.0000 H       2  UNL2        0.0000
    100 H          14.6317    0.0813    0.0000 H       2  UNL2        0.0000
    101 H          16.7623   -0.0638    0.0000 H       2  UNL2        0.0000
    102 H          15.9652   -0.0638    0.0000 H       2  UNL2        0.0000
    103 H          14.8777   -2.0388    0.0000 H       2  UNL2        0.0000
    104 H          15.4977   -2.6588    0.0000 H       2  UNL2        0.0000
    105 H          16.1177   -2.0388    0.0000 H       2  UNL2        0.0000
    106 H          16.8312   -1.5137    0.0000 H       2  UNL2        0.0000
    107 H          17.6283   -1.5138    0.0000 H       2  UNL2        0.0000
    108 H          18.4944   -0.0639    0.0000 H       2  UNL2        0.0000
    109 H          17.6973   -0.0639    0.0000 H       2  UNL2        0.0000
    110 H          18.4249   -1.3488    0.0000 H       2  UNL2        0.0000
    111 H          20.2264   -0.0639    0.0000 H       2  UNL2        0.0000
    112 H          19.4293   -0.0639    0.0000 H       2  UNL2        0.0000
    113 H          20.2953   -1.5138    0.0000 H       2  UNL2        0.0000
    114 H          21.0924   -1.5138    0.0000 H       2  UNL2        0.0000
    115 H          22.9629   -1.3489    0.0000 H       2  UNL2        0.0000
    116 H          21.9585   -0.0639    0.0000 H       2  UNL2        0.0000
    117 H          21.1614   -0.0639    0.0000 H       2  UNL2        0.0000
    118 H          23.6905   -0.0640    0.0000 H       2  UNL2        0.0000
    119 H          22.8934   -0.0639    0.0000 H       2  UNL2        0.0000
    120 H          18.3418   -2.0388    0.0000 H       2  UNL2        0.0000
    121 H          18.9618   -2.6588    0.0000 H       2  UNL2        0.0000
    122 H          19.5818   -2.0388    0.0000 H       2  UNL2        0.0000
    123 H          23.7595   -1.5138    0.0000 H       2  UNL2        0.0000
    124 H          24.5565   -1.5139    0.0000 H       2  UNL2        0.0000
    125 H          21.8059   -2.0389    0.0000 H       2  UNL2        0.0000
    126 H          22.4259   -2.6589    0.0000 H       2  UNL2        0.0000
    127 H          23.0459   -2.0389    0.0000 H       2  UNL2        0.0000
    128 H          25.4226   -0.0640    0.0000 H       2  UNL2        0.0000
    129 H          24.6255   -0.0640    0.0000 H       2  UNL2        0.0000
    130 H          26.4270   -1.3489    0.0000 H       2  UNL2        0.0000
    131 H          25.2700   -2.0389    0.0000 H       2  UNL2        0.0000
    132 H          25.8900   -2.6589    0.0000 H       2  UNL2        0.0000
    133 H          26.5100   -2.0390    0.0000 H       2  UNL2        0.0000
    134 H          27.0661   -1.0759    0.0000 H       2  UNL2        0.0000
    135 H          27.2930   -0.2290    0.0000 H       2  UNL2        0.0000
    136 H          26.4461   -0.0020    0.0000 H       2  UNL2        0.0000
@<TRIPOS>UNITY_ATOM_ATTR
1 1
charge 2
9 1
charge -1
10 1
charge -1
@<TRIPOS>BOND
     1     2    29    2
     2     3    38    1
     3     3    46    1
     4     4    38    2
     5     5    42    2
     6     6    43    1
     7     6    47    1
     8     7    43    2
     9     8    12    1
    10     8    15    2
    11     9    16   ar
    12     9    18   ar
    13    10    19   ar
    14    10    23   ar
    15    11    22    1
    16    11    24    2
    17    12    13    1
    18    12    17    2
    19    13    14    1
    20    13    27    1
    21    13    67    1
    22    14    15    1
    23    14    31    1
    24    14    68    1
    25    15    25    1
    26    16    17    1
    27    16    20   ar
    28    17    21    1
    29    18    26   ar
    30    18    28    1
    31    19    25    2
    32    19    32   ar
    33    20    26   ar
    34    20    29    1
    35    21    29    1
    36    21    38    1
    37    21    69    1
    38    22    28    2
    39    22    33    1
    40    23    30    2
    41    23    34   ar
    42    24    30    1
    43    24    35    1
    44    25    70    1
    45    26    37    1
    46    27    36    1
    47    27    71    1
    48    27    72    1
    49    28    73    1
    50    30    74    1
    51    31    75    1
    52    31    76    1
    53    31    77    1
    54    32    34   ar
    55    32    40    1
    56    33    35    2
    57    33    39    1
    58    34    41    1
    59    35    42    1
    60    36    43    1
    61    36    78    1
    62    36    79    1
    63    37    80    1
    64    37    81    1
    65    37    82    1
    66    39    44    1
    67    39    83    1
    68    39    84    1
    69    40    85    1
    70    40    86    1
    71    40    87    1
    72    41    45    2
    73    41    88    1
    74    42    89    1
    75    44    90    1
    76    44    91    1
    77    44    92    1
    78    45    93    1
    79    45    94    1
    80    46    95    1
    81    46    96    1
    82    46    97    1
    83    47    48    1
    84    47    98    1
    85    47    99    1
    86    48    49    2
    87    48   100    1
    88    49    50    1
    89    49    51    1
    90    50    52    1
    91    50   101    1
    92    50   102    1
    93    51   103    1
    94    51   104    1
    95    51   105    1
    96    52    53    1
    97    52   106    1
    98    52   107    1
    99    53    54    1
   100    53   108    1
   101    53   109    1
   102    54    55    1
   103    54    60    1
   104    54   110    1
   105    55    56    1
   106    55   111    1
   107    55   112    1
   108    56    58    1
   109    56   113    1
   110    56   114    1
   111    57    58    1
   112    57    59    1
   113    57    62    1
   114    57   115    1
   115    58   116    1
   116    58   117    1
   117    59    61    1
   118    59   118    1
   119    59   119    1
   120    60   120    1
   121    60   121    1
   122    60   122    1
   123    61    63    1
   124    61   123    1
   125    61   124    1
   126    62   125    1
   127    62   126    1
   128    62   127    1
   129    63    64    1
   130    63   128    1
   131    63   129    1
   132    64    65    1
   133    64    66    1
   134    64   130    1
   135    65   134    1
   136    65   135    1
   137    65   136    1
   138    66   131    1
   139    66   132    1
   140    66   133    1
