@<TRIPOS>MOLECULE
IMPHY006179
 54 53 0 0 0
SMALL
GASTEIGER

@<TRIPOS>ATOM
      1 SI          2.8660   -0.0600    0.0000 Si      1  UNL1        0.0000
      2 O           3.7320    0.4400    0.0000 O.3     1  UNL1        0.0000
      3 C           7.1962    0.4400    0.0000 C.3     1  UNL1        0.0000
      4 C           8.0622   -0.0600    0.0000 C.3     1  UNL1        0.0000
      5 C           6.3301   -0.0600    0.0000 C.2     1  UNL1        0.0000
      6 C           2.0000   -0.5600    0.0000 C.3     1  UNL1        0.0000
      7 C           2.3660    0.8060    0.0000 C.3     1  UNL1        0.0000
      8 C           3.3660   -0.9260    0.0000 C.3     1  UNL1        0.0000
      9 C           4.5981   -0.0600    0.0000 C.3     1  UNL1        0.0000
     10 C          10.6603    0.4400    0.0000 C.3     1  UNL1        0.0000
     11 C           9.7942   -0.0600    0.0000 C.2     1  UNL1        0.0000
     12 C           8.9282    0.4400    0.0000 C.2     1  UNL1        0.0000
     13 C           5.4641    0.4400    0.0000 C.2     1  UNL1        0.0000
     14 C          11.5263   -0.0600    0.0000 C.3     1  UNL1        0.0000
     15 C           6.3301   -1.0600    0.0000 C.3     1  UNL1        0.0000
     16 C           9.7942   -1.0600    0.0000 C.3     1  UNL1        0.0000
     17 C          12.3923    0.4400    0.0000 C.2     1  UNL1        0.0000
     18 C          13.2583   -0.0600    0.0000 C.2     1  UNL1        0.0000
     19 C          14.1244    0.4400    0.0000 C.3     1  UNL1        0.0000
     20 C          13.2583   -1.0600    0.0000 C.3     1  UNL1        0.0000
     21 H           7.5947    0.9149    0.0000 H       1  UNL1        0.0000
     22 H           6.7976    0.9149    0.0000 H       1  UNL1        0.0000
     23 H           7.6636   -0.5349    0.0000 H       1  UNL1        0.0000
     24 H           8.4607   -0.5349    0.0000 H       1  UNL1        0.0000
     25 H           1.6900   -0.0231    0.0000 H       1  UNL1        0.0000
     26 H           2.9030    1.1160    0.0000 H       1  UNL1        0.0000
     27 H           2.0560    1.3430    0.0000 H       1  UNL1        0.0000
     28 H           1.8291    0.4960    0.0000 H       1  UNL1        0.0000
     29 H           2.8291   -1.2360    0.0000 H       1  UNL1        0.0000
     30 H           3.6760   -1.4630    0.0000 H       1  UNL1        0.0000
     31 H           3.9030   -0.6160    0.0000 H       1  UNL1        0.0000
     32 H           1.4631   -0.8700    0.0000 H       1  UNL1        0.0000
     33 H           2.3100   -1.0969    0.0000 H       1  UNL1        0.0000
     34 H           4.1996   -0.5349    0.0000 H       1  UNL1        0.0000
     35 H           4.9966   -0.5349    0.0000 H       1  UNL1        0.0000
     36 H          11.0588    0.9149    0.0000 H       1  UNL1        0.0000
     37 H          10.2617    0.9149    0.0000 H       1  UNL1        0.0000
     38 H           8.9282    1.0600    0.0000 H       1  UNL1        0.0000
     39 H           5.4641    1.0600    0.0000 H       1  UNL1        0.0000
     40 H          11.1278   -0.5349    0.0000 H       1  UNL1        0.0000
     41 H          11.9248   -0.5349    0.0000 H       1  UNL1        0.0000
     42 H           5.7101   -1.0600    0.0000 H       1  UNL1        0.0000
     43 H           6.3301   -1.6800    0.0000 H       1  UNL1        0.0000
     44 H           6.9501   -1.0600    0.0000 H       1  UNL1        0.0000
     45 H           9.1742   -1.0600    0.0000 H       1  UNL1        0.0000
     46 H           9.7942   -1.6800    0.0000 H       1  UNL1        0.0000
     47 H          10.4142   -1.0600    0.0000 H       1  UNL1        0.0000
     48 H          12.3923    1.0600    0.0000 H       1  UNL1        0.0000
     49 H          12.6383   -1.0600    0.0000 H       1  UNL1        0.0000
     50 H          13.2583   -1.6800    0.0000 H       1  UNL1        0.0000
     51 H          13.8783   -1.0600    0.0000 H       1  UNL1        0.0000
     52 H          14.4344   -0.0969    0.0000 H       1  UNL1        0.0000
     53 H          14.6613    0.7500    0.0000 H       1  UNL1        0.0000
     54 H          13.8144    0.9769    0.0000 H       1  UNL1        0.0000
@<TRIPOS>BOND
     1     1     2    1
     2     1     6    1
     3     1     7    1
     4     1     8    1
     5     2     9    1
     6     3     4    1
     7     3     5    1
     8     3    21    1
     9     3    22    1
    10     4    12    1
    11     4    23    1
    12     4    24    1
    13     5    13    2
    14     5    15    1
    15     6    25    1
    16     6    32    1
    17     6    33    1
    18     7    26    1
    19     7    27    1
    20     7    28    1
    21     8    29    1
    22     8    30    1
    23     8    31    1
    24     9    13    1
    25     9    34    1
    26     9    35    1
    27    10    11    1
    28    10    14    1
    29    10    36    1
    30    10    37    1
    31    11    12    2
    32    11    16    1
    33    12    38    1
    34    13    39    1
    35    14    17    1
    36    14    40    1
    37    14    41    1
    38    15    42    1
    39    15    43    1
    40    15    44    1
    41    16    45    1
    42    16    46    1
    43    16    47    1
    44    17    18    2
    45    17    48    1
    46    18    19    1
    47    18    20    1
    48    19    52    1
    49    19    53    1
    50    19    54    1
    51    20    49    1
    52    20    50    1
    53    20    51    1
