@<TRIPOS>MOLECULE
IMPHY004283
 45 44 0 0 0
SMALL
GASTEIGER

@<TRIPOS>ATOM
      1 C           3.7320    0.3100    0.0000 C.3     1  UNL1       -0.0525
      2 C           3.7320   -0.6900    0.0000 C.3     1  UNL1       -0.0496
      3 C           2.8660    0.8100    0.0000 C.3     1  UNL1       -0.0496
      4 C           4.5981   -1.1900    0.0000 C.3     1  UNL1       -0.0348
      5 C           2.8660    1.8100    0.0000 C.3     1  UNL1       -0.0350
      6 C           4.5981   -2.1900    0.0000 C.2     1  UNL1       -0.0876
      7 C           5.4641   -2.6900    0.0000 C.2     1  UNL1       -0.0842
      8 C           2.0000    2.3100    0.0000 C.2     1  UNL1       -0.0911
      9 C           6.3301   -2.1900    0.0000 C.3     1  UNL1       -0.0165
     10 C           7.1962   -2.6900    0.0000 C.2     1  UNL1       -0.0839
     11 C           8.0622   -1.1900    0.0000 C.3     1  UNL1       -0.0165
     12 C           8.0622   -2.1900    0.0000 C.2     1  UNL1       -0.0839
     13 C           2.0000    3.3100    0.0000 C.2     1  UNL1       -0.1026
     14 C           8.9282   -0.6900    0.0000 C.2     1  UNL1       -0.0842
     15 C           8.0622    0.8100    0.0000 C.3     1  UNL1       -0.0376
     16 C           8.9282    0.3100    0.0000 C.2     1  UNL1       -0.0879
     17 C           8.0622    1.8100    0.0000 C.3     1  UNL1       -0.0618
     18 H           4.3426    0.2023    0.0000 H       1  UNL1        0.0265
     19 H           3.9441    0.8926    0.0000 H       1  UNL1        0.0265
     20 H           3.1215   -0.5823    0.0000 H       1  UNL1        0.0268
     21 H           3.5200   -1.2726    0.0000 H       1  UNL1        0.0268
     22 H           2.2554    0.9177    0.0000 H       1  UNL1        0.0268
     23 H           2.6540    0.2274    0.0000 H       1  UNL1        0.0268
     24 H           5.2087   -1.2977    0.0000 H       1  UNL1        0.0307
     25 H           4.8101   -0.6074    0.0000 H       1  UNL1        0.0307
     26 H           3.4766    1.7023    0.0000 H       1  UNL1        0.0307
     27 H           3.0781    2.3926    0.0000 H       1  UNL1        0.0307
     28 H           4.0611   -2.5000    0.0000 H       1  UNL1        0.0569
     29 H           5.4641   -3.3100    0.0000 H       1  UNL1        0.0572
     30 H           1.4631    2.0000    0.0000 H       1  UNL1        0.0566
     31 H           6.7287   -1.7150    0.0000 H       1  UNL1        0.0350
     32 H           5.9316   -1.7150    0.0000 H       1  UNL1        0.0350
     33 H           7.1962   -3.3100    0.0000 H       1  UNL1        0.0572
     34 H           7.8501   -0.6074    0.0000 H       1  UNL1        0.0350
     35 H           7.4516   -1.2977    0.0000 H       1  UNL1        0.0350
     36 H           8.5991   -2.5000    0.0000 H       1  UNL1        0.0572
     37 H           2.5369    3.6200    0.0000 H       1  UNL1        0.0532
     38 H           1.4631    3.6200    0.0000 H       1  UNL1        0.0532
     39 H           9.4651   -1.0000    0.0000 H       1  UNL1        0.0572
     40 H           7.4516    0.9177    0.0000 H       1  UNL1        0.0305
     41 H           7.8501    0.2274    0.0000 H       1  UNL1        0.0305
     42 H           9.4651    0.6200    0.0000 H       1  UNL1        0.0569
     43 H           8.6822    1.8100    0.0000 H       1  UNL1        0.0233
     44 H           8.0622    2.4300    0.0000 H       1  UNL1        0.0233
     45 H           7.4422    1.8100    0.0000 H       1  UNL1        0.0233
@<TRIPOS>BOND
     1     1     2    1
     2     1     3    1
     3     1    18    1
     4     1    19    1
     5     2     4    1
     6     2    20    1
     7     2    21    1
     8     3     5    1
     9     3    22    1
    10     3    23    1
    11     4     6    1
    12     4    24    1
    13     4    25    1
    14     5     8    1
    15     5    26    1
    16     5    27    1
    17     6     7    2
    18     6    28    1
    19     7     9    1
    20     7    29    1
    21     8    13    2
    22     8    30    1
    23     9    10    1
    24     9    31    1
    25     9    32    1
    26    10    12    2
    27    10    33    1
    28    11    12    1
    29    11    14    1
    30    11    34    1
    31    11    35    1
    32    12    36    1
    33    13    37    1
    34    13    38    1
    35    14    16    2
    36    14    39    1
    37    15    16    1
    38    15    17    1
    39    15    40    1
    40    15    41    1
    41    16    42    1
    42    17    43    1
    43    17    44    1
    44    17    45    1
