@<TRIPOS>MOLECULE
IMPHY005488
 23 22 0 0 0
SMALL
GASTEIGER

@<TRIPOS>ATOM
      1 S           2.8660    0.5000    0.0000 S.3     1  UNL1       -0.1641
      2 S           9.7942   -0.5000    0.0000 S.2     1  UNL1        0.0203
      3 N           8.0622    0.5000    0.0000 N.2     1  UNL1       -0.2346
      4 C           5.4641    0.0000    0.0000 C.3     1  UNL1       -0.0506
      5 C           4.5981    0.5000    0.0000 C.3     1  UNL1       -0.0440
      6 C           6.3301    0.5000    0.0000 C.3     1  UNL1       -0.0326
      7 C           3.7320    0.0000    0.0000 C.3     1  UNL1       -0.0066
      8 C           7.1962    0.0000    0.0000 C.3     1  UNL1        0.0495
      9 C           2.0000    0.0000    0.0000 C.3     1  UNL1       -0.0181
     10 C           8.9282    0.0000    0.0000 C.1     1  UNL1        0.0358
     11 H           5.0656   -0.4749    0.0000 H       1  UNL1        0.0266
     12 H           5.8626   -0.4749    0.0000 H       1  UNL1        0.0266
     13 H           4.9966    0.9749    0.0000 H       1  UNL1        0.0273
     14 H           4.1996    0.9749    0.0000 H       1  UNL1        0.0273
     15 H           6.7287    0.9749    0.0000 H       1  UNL1        0.0283
     16 H           5.9316    0.9749    0.0000 H       1  UNL1        0.0283
     17 H           3.3335   -0.4749    0.0000 H       1  UNL1        0.0376
     18 H           4.1306   -0.4749    0.0000 H       1  UNL1        0.0376
     19 H           6.7976   -0.4749    0.0000 H       1  UNL1        0.0516
     20 H           7.5947   -0.4749    0.0000 H       1  UNL1        0.0516
     21 H           1.6900    0.5369    0.0000 H       1  UNL1        0.0340
     22 H           1.4631   -0.3100    0.0000 H       1  UNL1        0.0340
     23 H           2.3100   -0.5369    0.0000 H       1  UNL1        0.0340
@<TRIPOS>BOND
     1     1     7    1
     2     1     9    1
     3     2    10    2
     4     3     8    1
     5     3    10    2
     6     4     5    1
     7     4     6    1
     8     4    11    1
     9     4    12    1
    10     5     7    1
    11     5    13    1
    12     5    14    1
    13     6     8    1
    14     6    15    1
    15     6    16    1
    16     7    17    1
    17     7    18    1
    18     8    19    1
    19     8    20    1
    20     9    21    1
    21     9    22    1
    22     9    23    1
