@<TRIPOS>MOLECULE
IMPHY017610
 41 41 0 0 0
SMALL
GASTEIGER

@<TRIPOS>ATOM
      1 O           4.5981    0.5000    0.0000 O.3     1  UNL1       -0.4221
      2 O           2.8660   -0.5000    0.0000 O.3     1  UNL1       -0.4914
      3 O           6.3301    0.5000    0.0000 O.2     1  UNL1       -0.2504
      4 C           6.3301    3.5000    0.0000 C.3     1  UNL1       -0.0528
      5 C           6.3301    2.5000    0.0000 C.3     1  UNL1       -0.0430
      6 C           7.1962    4.0000    0.0000 C.3     1  UNL1       -0.0559
      7 C           5.4641    2.0000    0.0000 C.3     1  UNL1        0.0454
      8 C           7.1962    5.0000    0.0000 C.3     1  UNL1       -0.0653
      9 C           5.4641    1.0000    0.0000 C.2     1  UNL1        0.3124
     10 C           4.5981   -0.5000    0.0000 C.ar    1  UNL1        0.1730
     11 C           4.5981   -2.5000    0.0000 C.ar    1  UNL1       -0.0400
     12 C           3.7320   -1.0000    0.0000 C.ar    1  UNL1        0.1625
     13 C           3.7320   -2.0000    0.0000 C.ar    1  UNL1       -0.0128
     14 C           5.4641   -1.0000    0.0000 C.ar    1  UNL1       -0.0153
     15 C           4.5981   -3.5000    0.0000 C.3     1  UNL1       -0.0096
     16 C           5.4641   -2.0000    0.0000 C.ar    1  UNL1       -0.0546
     17 C           5.4641   -4.0000    0.0000 C.2     1  UNL1       -0.0868
     18 C           2.0000   -1.0000    0.0000 C.3     1  UNL1        0.0790
     19 C           5.4641   -5.0000    0.0000 C.2     1  UNL1       -0.1023
     20 H           6.1181    4.0826    0.0000 H       1  UNL1        0.0265
     21 H           5.7196    3.3923    0.0000 H       1  UNL1        0.0265
     22 H           6.5422    1.9174    0.0000 H       1  UNL1        0.0270
     23 H           6.9407    2.6077    0.0000 H       1  UNL1        0.0270
     24 H           7.4082    3.4174    0.0000 H       1  UNL1        0.0263
     25 H           7.8067    4.1077    0.0000 H       1  UNL1        0.0263
     26 H           5.2520    2.5826    0.0000 H       1  UNL1        0.0378
     27 H           4.8535    1.8923    0.0000 H       1  UNL1        0.0378
     28 H           7.8162    5.0000    0.0000 H       1  UNL1        0.0230
     29 H           7.1962    5.6200    0.0000 H       1  UNL1        0.0230
     30 H           6.5762    5.0000    0.0000 H       1  UNL1        0.0230
     31 H           3.1951   -2.3100    0.0000 H       1  UNL1        0.0658
     32 H           6.0010   -0.6900    0.0000 H       1  UNL1        0.0656
     33 H           3.9875   -3.3923    0.0000 H       1  UNL1        0.0355
     34 H           4.3860   -4.0826    0.0000 H       1  UNL1        0.0355
     35 H           6.0010   -2.3100    0.0000 H       1  UNL1        0.0622
     36 H           6.0010   -3.6900    0.0000 H       1  UNL1        0.0570
     37 H           1.6900   -0.4631    0.0000 H       1  UNL1        0.0660
     38 H           1.4631   -1.3100    0.0000 H       1  UNL1        0.0660
     39 H           2.3100   -1.5369    0.0000 H       1  UNL1        0.0660
     40 H           4.9272   -5.3100    0.0000 H       1  UNL1        0.0532
     41 H           6.0010   -5.3100    0.0000 H       1  UNL1        0.0532
@<TRIPOS>BOND
     1     1     9    1
     2     1    10    1
     3     2    12    1
     4     2    18    1
     5     3     9    2
     6     4     5    1
     7     4     6    1
     8     4    20    1
     9     4    21    1
    10     5     7    1
    11     5    22    1
    12     5    23    1
    13     6     8    1
    14     6    24    1
    15     6    25    1
    16     7     9    1
    17     7    26    1
    18     7    27    1
    19     8    28    1
    20     8    29    1
    21     8    30    1
    22    10    12   ar
    23    10    14   ar
    24    11    13   ar
    25    11    15    1
    26    11    16   ar
    27    12    13   ar
    28    13    31    1
    29    14    16   ar
    30    14    32    1
    31    15    17    1
    32    15    33    1
    33    15    34    1
    34    16    35    1
    35    17    19    2
    36    17    36    1
    37    18    37    1
    38    18    38    1
    39    18    39    1
    40    19    40    1
    41    19    41    1
