@<TRIPOS>MOLECULE
IMPHY001207
 32 34 0 0 0
SMALL
GASTEIGER

@<TRIPOS>ATOM
      1 O           7.3424   -1.0427    0.0000 O.2     1  UNL1       -0.4449
      2 O           5.5301    1.7621    0.0000 O.3     1  UNL1       -0.4937
      3 O           2.0000    0.7862    0.0000 O.3     1  UNL1       -0.4914
      4 O           2.0000   -1.2621    0.0000 O.3     1  UNL1       -0.4914
      5 N           5.5301   -1.2379    0.0000 N.ar    1  UNL1       -0.2117
      6 C           4.6641    0.2621    0.0000 C.ar    1  UNL1        0.0465
      7 C           4.6641   -0.7379    0.0000 C.ar    1  UNL1        0.0820
      8 C           5.5301    0.7621    0.0000 C.ar    1  UNL1        0.1417
      9 C           6.3961    0.2621    0.0000 C.ar    1  UNL1        0.0820
     10 C           6.3961   -0.7379    0.0000 C.ar    1  UNL1        0.2311
     11 C           3.7702    0.7967    0.0000 C.ar    1  UNL1       -0.0036
     12 C           3.7702   -1.2726    0.0000 C.ar    1  UNL1        0.0099
     13 C           2.8641    0.2829    0.0000 C.ar    1  UNL1        0.1623
     14 C           2.8641   -0.7587    0.0000 C.ar    1  UNL1        0.1635
     15 C           7.3424    0.5668    0.0000 C.ar    1  UNL1       -0.0109
     16 C           7.9260   -0.2379    0.0000 C.ar    1  UNL1        0.0952
     17 C           6.3961    2.2621    0.0000 C.3     1  UNL1        0.0788
     18 C           2.0038    1.7862    0.0000 C.3     1  UNL1        0.0790
     19 C           2.0038   -2.2621    0.0000 C.3     1  UNL1        0.0790
     20 H           3.7773    1.4167    0.0000 H       1  UNL1        0.0663
     21 H           3.7773   -1.8926    0.0000 H       1  UNL1        0.0677
     22 H           7.5350    1.1561    0.0000 H       1  UNL1        0.0657
     23 H           8.5460   -0.2379    0.0000 H       1  UNL1        0.1030
     24 H           6.7062    1.7251    0.0000 H       1  UNL1        0.0660
     25 H           6.9331    2.5721    0.0000 H       1  UNL1        0.0660
     26 H           6.0862    2.7990    0.0000 H       1  UNL1        0.0660
     27 H           2.6238    1.7838    0.0000 H       1  UNL1        0.0660
     28 H           2.0062    2.4062    0.0000 H       1  UNL1        0.0660
     29 H           1.3839    1.7886    0.0000 H       1  UNL1        0.0660
     30 H           1.3839   -2.2645    0.0000 H       1  UNL1        0.0660
     31 H           2.0062   -2.8821    0.0000 H       1  UNL1        0.0660
     32 H           2.6238   -2.2597    0.0000 H       1  UNL1        0.0660
@<TRIPOS>BOND
     1     1    10   ar
     2     1    16   ar
     3     2     8    1
     4     2    17    1
     5     3    13    1
     6     3    18    1
     7     4    14    1
     8     4    19    1
     9     5     7   ar
    10     5    10   ar
    11     6     7   ar
    12     6     8   ar
    13     6    11   ar
    14     7    12   ar
    15     8     9   ar
    16     9    10   ar
    17     9    15   ar
    18    11    13   ar
    19    11    20    1
    20    12    14   ar
    21    12    21    1
    22    13    14   ar
    23    15    16   ar
    24    15    22    1
    25    16    23    1
    26    17    24    1
    27    17    25    1
    28    17    26    1
    29    18    27    1
    30    18    28    1
    31    18    29    1
    32    19    30    1
    33    19    31    1
    34    19    32    1
