@<TRIPOS>MOLECULE
IMPHY007754
 77 81 0 0 0
SMALL
GASTEIGER

@<TRIPOS>ATOM
      1 O           2.5357   -1.8922    0.0000 O.3     1  UNL1       -0.3912
      2 O           4.3500   -3.6701    0.0000 O.3     1  UNL1       -0.3944
      3 C           5.2868   -0.3467    0.0000 C.3     1  UNL1       -0.0249
      4 C           7.0628   -0.3398    0.0000 C.3     1  UNL1       -0.0191
      5 C           6.1968    0.1601    0.0000 C.3     1  UNL1       -0.0257
      6 C           5.2787   -1.3883    0.0000 C.3     1  UNL1       -0.0255
      7 C           7.9288    0.1601    0.0000 C.3     1  UNL1       -0.0011
      8 C           7.0789   -1.3814    0.0000 C.3     1  UNL1       -0.0463
      9 C           4.3433   -1.9380    0.0000 C.3     1  UNL1        0.0203
     10 C           6.1808   -1.9091    0.0000 C.3     1  UNL1       -0.0485
     11 C           4.3599    0.2174    0.0000 C.3     1  UNL1       -0.0447
     12 C           6.1968    1.1602    0.0000 C.3     1  UNL1       -0.0303
     13 C           3.4037   -1.3955    0.0000 C.3     1  UNL1        0.0630
     14 C           7.9288    1.1602    0.0000 C.2     1  UNL1       -0.0417
     15 C           3.4120   -0.3106    0.0000 C.3     1  UNL1       -0.0257
     16 C           5.2945    0.6533    0.0000 C.3     1  UNL1       -0.0590
     17 C           7.7056   -1.1059    0.0000 C.3     1  UNL1       -0.0585
     18 C           8.8228   -0.3745    0.0000 C.3     1  UNL1       -0.0394
     19 C           7.0628    1.6602    0.0000 C.2     1  UNL1       -0.0797
     20 C           8.2709   -0.7795    0.0000 C.3     1  UNL1       -0.0550
     21 C           3.8467   -2.8060    0.0000 C.3     1  UNL1        0.0522
     22 C           4.8466   -2.8021    0.0000 C.3     1  UNL1       -0.0548
     23 C           8.8228    1.6948    0.0000 C.2     1  UNL1       -0.0442
     24 C           9.7288    0.1393    0.0000 C.3     1  UNL1       -0.0304
     25 C           9.7288    1.1810    0.0000 C.2     1  UNL1       -0.0660
     26 C           8.7977    2.7795    0.0000 C.3     1  UNL1       -0.0223
     27 C           9.7288    3.3364    0.0000 C.3     1  UNL1       -0.0306
     28 C          10.6726    1.7162    0.0000 C.3     1  UNL1       -0.0307
     29 C          10.6726    2.8012    0.0000 C.3     1  UNL1       -0.0439
     30 C          10.2188    4.2082    0.0000 C.3     1  UNL1       -0.0595
     31 C           9.2188    4.1966    0.0000 C.3     1  UNL1       -0.0595
     32 H           6.9329    0.5851    0.0000 H       1  UNL1        0.0315
     33 H           5.2820   -2.2383    0.0000 H       1  UNL1        0.0313
     34 H           7.2969   -1.9618    0.0000 H       1  UNL1        0.0271
     35 H           7.6880   -1.2659    0.0000 H       1  UNL1        0.0271
     36 H           5.7835   -2.3851    0.0000 H       1  UNL1        0.0268
     37 H           6.5818   -2.3820    0.0000 H       1  UNL1        0.0268
     38 H           4.7681    0.6840    0.0000 H       1  UNL1        0.0271
     39 H           3.9700    0.6994    0.0000 H       1  UNL1        0.0271
     40 H           5.9847    1.7428    0.0000 H       1  UNL1        0.0311
     41 H           5.5862    1.0525    0.0000 H       1  UNL1        0.0311
     42 H           3.4025   -2.0155    0.0000 H       1  UNL1        0.0599
     43 H           3.2075    0.2747    0.0000 H       1  UNL1        0.0290
     44 H           2.8004   -0.4119    0.0000 H       1  UNL1        0.0290
     45 H           5.9145    0.6485    0.0000 H       1  UNL1        0.0235
     46 H           5.2993    1.2733    0.0000 H       1  UNL1        0.0235
     47 H           4.6745    0.6581    0.0000 H       1  UNL1        0.0235
     48 H           7.2306   -1.5044    0.0000 H       1  UNL1        0.0235
     49 H           8.1041   -1.5808    0.0000 H       1  UNL1        0.0235
     50 H           8.1805   -0.7074    0.0000 H       1  UNL1        0.0235
     51 H           8.4182   -0.8443    0.0000 H       1  UNL1        0.0277
     52 H           9.2164   -0.8535    0.0000 H       1  UNL1        0.0277
     53 H           7.0628    2.2802    0.0000 H       1  UNL1        0.0575
     54 H           7.6884   -0.9916    0.0000 H       1  UNL1        0.0238
     55 H           8.4830   -1.3621    0.0000 H       1  UNL1        0.0238
     56 H           8.8535   -0.5674    0.0000 H       1  UNL1        0.0238
     57 H           3.3702   -2.4093    0.0000 H       1  UNL1        0.0563
     58 H           3.3732   -3.2063    0.0000 H       1  UNL1        0.0563
     59 H           4.3109   -3.1142    0.0000 H       1  UNL1        0.0237
     60 H           5.1587   -3.3378    0.0000 H       1  UNL1        0.0237
     61 H           5.3824   -2.4900    0.0000 H       1  UNL1        0.0237
     62 H           9.9379   -0.4444    0.0000 H       1  UNL1        0.0310
     63 H          10.3397    0.2454    0.0000 H       1  UNL1        0.0310
     64 H           8.5752    3.3582    0.0000 H       1  UNL1        0.0318
     65 H           8.1894    2.6593    0.0000 H       1  UNL1        0.0318
     66 H          10.8817    1.1325    0.0000 H       1  UNL1        0.0310
     67 H          11.2835    1.8223    0.0000 H       1  UNL1        0.0310
     68 H           2.0000   -1.5801    0.0000 H       1  UNL1        0.2098
     69 H          11.2835    2.6951    0.0000 H       1  UNL1        0.0274
     70 H          10.8817    3.3849    0.0000 H       1  UNL1        0.0274
     71 H           4.0421   -4.2082    0.0000 H       1  UNL1        0.2094
     72 H          10.7593    3.9044    0.0000 H       1  UNL1        0.0235
     73 H           9.7522    4.5128    0.0000 H       1  UNL1        0.0235
     74 H           8.9027    4.7299    0.0000 H       1  UNL1        0.0235
     75 H           8.6855    3.8804    0.0000 H       1  UNL1        0.0235
     76 H          10.5226    4.7487    0.0000 H       1  UNL1        0.0235
     77 H           9.6783    4.5120    0.0000 H       1  UNL1        0.0235
@<TRIPOS>BOND
     1    13     1    1
     2     1    68    1
     3     2    21    1
     4     2    71    1
     5     3     5    1
     6     3     6    1
     7     3    11    1
     8     3    16    1
     9     4     5    1
    10     4     7    1
    11     4     8    1
    12     4    17    1
    13     5    12    1
    14     5    32    1
    15     6     9    1
    16     6    10    1
    17     6    33    1
    18     7    14    1
    19     7    18    1
    20     7    20    1
    21     8    10    1
    22     8    34    1
    23     8    35    1
    24     9    13    1
    25     9    21    1
    26     9    22    1
    27    10    36    1
    28    10    37    1
    29    11    15    1
    30    11    38    1
    31    11    39    1
    32    12    19    1
    33    12    40    1
    34    12    41    1
    35    13    15    1
    36    13    42    1
    37    14    19    2
    38    14    23    1
    39    15    43    1
    40    15    44    1
    41    16    45    1
    42    16    46    1
    43    16    47    1
    44    17    48    1
    45    17    49    1
    46    17    50    1
    47    18    24    1
    48    18    51    1
    49    18    52    1
    50    19    53    1
    51    20    54    1
    52    20    55    1
    53    20    56    1
    54    21    57    1
    55    21    58    1
    56    22    59    1
    57    22    60    1
    58    22    61    1
    59    23    25    2
    60    23    26    1
    61    24    25    1
    62    24    62    1
    63    24    63    1
    64    25    28    1
    65    26    27    1
    66    26    64    1
    67    26    65    1
    68    27    29    1
    69    27    30    1
    70    27    31    1
    71    28    29    1
    72    28    66    1
    73    28    67    1
    74    29    69    1
    75    29    70    1
    76    30    72    1
    77    30    76    1
    78    30    77    1
    79    31    73    1
    80    31    74    1
    81    31    75    1
