@<TRIPOS>MOLECULE
IMPHY002912
 24 23 0 0 0
SMALL
GASTEIGER

@<TRIPOS>ATOM
      1 S1          5.1350    0.2315    0.0000 S.O     1  <1>         0.0279
      2 O1          5.1350   -0.7685    0.0000 O.2     1  <1>        -0.2570
      3 O2          4.2690   -1.2685    0.0000 O.co2   1  <1>        -0.5441
      4 O3          2.5369   -1.2685    0.0000 O.co2   1  <1>        -0.5441
      5 N1          2.5369    0.7315    0.0000 N.4     1  <1>         0.2256
      6 C1          3.4030    0.2315    0.0000 C.3     1  <1>         0.0275
      7 C2          4.2690    0.7315    0.0000 C.3     1  <1>         0.0715
      8 C3          6.0010    0.7315    0.0000 C.3     1  <1>         0.0233
      9 C4          6.8671    0.2315    0.0000 C.3     1  <1>        -0.0445
     10 C5          3.4030   -0.7685    0.0000 C.2     1  <1>         0.0902
     11 C6          7.7331    0.7315    0.0000 C.3     1  <1>        -0.0645
     12 H1          3.4030    0.8515    0.0000 H       1  <1>         0.0923
     13 H2          4.6675    1.2065    0.0000 H       1  <1>         0.0461
     14 H3          3.8705    1.2065    0.0000 H       1  <1>         0.0461
     15 H4          6.3996    1.2065    0.0000 H       1  <1>         0.0401
     16 H5          5.6025    1.2065    0.0000 H       1  <1>         0.0401
     17 H6          6.4685   -0.2434    0.0000 H       1  <1>         0.0271
     18 H7          7.2656   -0.2434    0.0000 H       1  <1>         0.0271
     19 H8          2.0000    1.0415    0.0000 H       1  <1>         0.2001
     20 H9          2.2269    0.1946    0.0000 H       1  <1>         0.2001
     21 H10         2.8469    1.2685    0.0000 H       1  <1>         0.2001
     22 H11         8.0431    0.1946    0.0000 H       1  <1>         0.0230
     23 H12         8.2700    1.0415    0.0000 H       1  <1>         0.0230
     24 H13         7.4231    1.2685    0.0000 H       1  <1>         0.0230
@<TRIPOS>UNITY_ATOM_ATTR
3 1
charge -1
5 1
charge 1
@<TRIPOS>BOND
     1     1     2    2
     2     1     7    1
     3     1     8    1
     4     3    10   ar
     5     4    10   ar
     6     5     6    1
     7     5    19    1
     8     5    20    1
     9     5    21    1
    10     6     7    1
    11     6    10    1
    12     6    12    1
    13     7    13    1
    14     7    14    1
    15     8     9    1
    16     8    15    1
    17     8    16    1
    18     9    11    1
    19     9    17    1
    20     9    18    1
    21    11    22    1
    22    11    23    1
    23    11    24    1
