@<TRIPOS>MOLECULE
IMPHY004519
 104 103 0 0 0
SMALL
GASTEIGER

@<TRIPOS>ATOM
      1 O           2.8660    0.7500    0.0000 O.3     1  UNL1       -0.4679
      2 O           3.7320   -0.7500    0.0000 O.2     1  UNL1       -0.2509
      3 C          17.5885    0.2500    0.0000 C.3     1  UNL1       -0.0531
      4 C          18.4545    0.7500    0.0000 C.3     1  UNL1       -0.0531
      5 C          16.7224    0.7500    0.0000 C.3     1  UNL1       -0.0531
      6 C          19.3205    0.2500    0.0000 C.3     1  UNL1       -0.0531
      7 C          15.8564    0.2500    0.0000 C.3     1  UNL1       -0.0531
      8 C          20.1865    0.7500    0.0000 C.3     1  UNL1       -0.0531
      9 C          14.9904    0.7500    0.0000 C.3     1  UNL1       -0.0531
     10 C          21.0526    0.2500    0.0000 C.3     1  UNL1       -0.0531
     11 C          14.1244    0.2500    0.0000 C.3     1  UNL1       -0.0531
     12 C          21.9186    0.7500    0.0000 C.3     1  UNL1       -0.0531
     13 C          13.2583    0.7500    0.0000 C.3     1  UNL1       -0.0531
     14 C          22.7846    0.2500    0.0000 C.3     1  UNL1       -0.0531
     15 C          12.3923    0.2500    0.0000 C.3     1  UNL1       -0.0531
     16 C          23.6506    0.7500    0.0000 C.3     1  UNL1       -0.0531
     17 C          11.5263    0.7500    0.0000 C.3     1  UNL1       -0.0531
     18 C          24.5167    0.2500    0.0000 C.3     1  UNL1       -0.0531
     19 C          10.6603    0.2500    0.0000 C.3     1  UNL1       -0.0531
     20 C          25.3827    0.7500    0.0000 C.3     1  UNL1       -0.0531
     21 C           9.7942    0.7500    0.0000 C.3     1  UNL1       -0.0531
     22 C          26.2487    0.2500    0.0000 C.3     1  UNL1       -0.0531
     23 C           8.9282    0.2500    0.0000 C.3     1  UNL1       -0.0531
     24 C          27.1147    0.7500    0.0000 C.3     1  UNL1       -0.0531
     25 C           8.0622    0.7500    0.0000 C.3     1  UNL1       -0.0531
     26 C          27.9808    0.2500    0.0000 C.3     1  UNL1       -0.0531
     27 C           7.1962    0.2500    0.0000 C.3     1  UNL1       -0.0530
     28 C          28.8468    0.7500    0.0000 C.3     1  UNL1       -0.0531
     29 C           6.3301    0.7500    0.0000 C.3     1  UNL1       -0.0526
     30 C          29.7128    0.2500    0.0000 C.3     1  UNL1       -0.0533
     31 C           5.4641    0.2500    0.0000 C.3     1  UNL1       -0.0430
     32 C          30.5788    0.7500    0.0000 C.3     1  UNL1       -0.0559
     33 C           4.5981    0.7500    0.0000 C.3     1  UNL1        0.0449
     34 C          31.4449    0.2500    0.0000 C.3     1  UNL1       -0.0653
     35 C           3.7320    0.2500    0.0000 C.2     1  UNL1        0.3068
     36 C           2.0000    0.2500    0.0000 C.3     1  UNL1        0.0817
     37 H          17.1899   -0.2249    0.0000 H       1  UNL1        0.0265
     38 H          17.9870   -0.2249    0.0000 H       1  UNL1        0.0265
     39 H          18.8530    1.2250    0.0000 H       1  UNL1        0.0265
     40 H          18.0560    1.2250    0.0000 H       1  UNL1        0.0265
     41 H          17.1210    1.2250    0.0000 H       1  UNL1        0.0265
     42 H          16.3239    1.2250    0.0000 H       1  UNL1        0.0265
     43 H          18.9220   -0.2249    0.0000 H       1  UNL1        0.0265
     44 H          19.7190   -0.2249    0.0000 H       1  UNL1        0.0265
     45 H          15.4579   -0.2249    0.0000 H       1  UNL1        0.0265
     46 H          16.2549   -0.2249    0.0000 H       1  UNL1        0.0265
     47 H          20.5851    1.2250    0.0000 H       1  UNL1        0.0265
     48 H          19.7880    1.2250    0.0000 H       1  UNL1        0.0265
     49 H          15.3889    1.2250    0.0000 H       1  UNL1        0.0265
     50 H          14.5919    1.2250    0.0000 H       1  UNL1        0.0265
     51 H          20.6540   -0.2249    0.0000 H       1  UNL1        0.0265
     52 H          21.4511   -0.2249    0.0000 H       1  UNL1        0.0265
     53 H          13.7258   -0.2249    0.0000 H       1  UNL1        0.0265
     54 H          14.5229   -0.2249    0.0000 H       1  UNL1        0.0265
     55 H          22.3171    1.2250    0.0000 H       1  UNL1        0.0265
     56 H          21.5201    1.2250    0.0000 H       1  UNL1        0.0265
     57 H          13.6569    1.2250    0.0000 H       1  UNL1        0.0265
     58 H          12.8598    1.2250    0.0000 H       1  UNL1        0.0265
     59 H          22.3861   -0.2249    0.0000 H       1  UNL1        0.0265
     60 H          23.1831   -0.2249    0.0000 H       1  UNL1        0.0265
     61 H          11.9938   -0.2249    0.0000 H       1  UNL1        0.0265
     62 H          12.7908   -0.2249    0.0000 H       1  UNL1        0.0265
     63 H          24.0492    1.2250    0.0000 H       1  UNL1        0.0265
     64 H          23.2521    1.2250    0.0000 H       1  UNL1        0.0265
     65 H          11.9248    1.2250    0.0000 H       1  UNL1        0.0265
     66 H          11.1278    1.2250    0.0000 H       1  UNL1        0.0265
     67 H          24.1181   -0.2249    0.0000 H       1  UNL1        0.0265
     68 H          24.9152   -0.2249    0.0000 H       1  UNL1        0.0265
     69 H          10.2617   -0.2249    0.0000 H       1  UNL1        0.0265
     70 H          11.0588   -0.2249    0.0000 H       1  UNL1        0.0265
     71 H          25.7812    1.2250    0.0000 H       1  UNL1        0.0265
     72 H          24.9842    1.2250    0.0000 H       1  UNL1        0.0265
     73 H          10.1928    1.2250    0.0000 H       1  UNL1        0.0265
     74 H           9.3957    1.2250    0.0000 H       1  UNL1        0.0265
     75 H          25.8502   -0.2249    0.0000 H       1  UNL1        0.0265
     76 H          26.6472   -0.2249    0.0000 H       1  UNL1        0.0265
     77 H           8.5297   -0.2249    0.0000 H       1  UNL1        0.0265
     78 H           9.3267   -0.2249    0.0000 H       1  UNL1        0.0265
     79 H          27.5133    1.2250    0.0000 H       1  UNL1        0.0265
     80 H          26.7162    1.2250    0.0000 H       1  UNL1        0.0265
     81 H           8.4607    1.2250    0.0000 H       1  UNL1        0.0265
     82 H           7.6636    1.2250    0.0000 H       1  UNL1        0.0265
     83 H          27.5822   -0.2249    0.0000 H       1  UNL1        0.0265
     84 H          28.3793   -0.2249    0.0000 H       1  UNL1        0.0265
     85 H           6.7976   -0.2249    0.0000 H       1  UNL1        0.0265
     86 H           7.5947   -0.2249    0.0000 H       1  UNL1        0.0265
     87 H          29.2453    1.2250    0.0000 H       1  UNL1        0.0265
     88 H          28.4483    1.2250    0.0000 H       1  UNL1        0.0265
     89 H           6.7287    1.2250    0.0000 H       1  UNL1        0.0265
     90 H           5.9316    1.2250    0.0000 H       1  UNL1        0.0265
     91 H          29.3143   -0.2249    0.0000 H       1  UNL1        0.0265
     92 H          30.1113   -0.2249    0.0000 H       1  UNL1        0.0265
     93 H           5.0656   -0.2249    0.0000 H       1  UNL1        0.0270
     94 H           5.8626   -0.2249    0.0000 H       1  UNL1        0.0270
     95 H          30.9774    1.2250    0.0000 H       1  UNL1        0.0263
     96 H          30.1803    1.2250    0.0000 H       1  UNL1        0.0263
     97 H           4.9966    1.2250    0.0000 H       1  UNL1        0.0377
     98 H           4.1996    1.2250    0.0000 H       1  UNL1        0.0377
     99 H          31.1349   -0.2869    0.0000 H       1  UNL1        0.0230
    100 H          31.9818   -0.0600    0.0000 H       1  UNL1        0.0230
    101 H          31.7549    0.7869    0.0000 H       1  UNL1        0.0230
    102 H           1.6900    0.7869    0.0000 H       1  UNL1        0.0661
    103 H           1.4631   -0.0600    0.0000 H       1  UNL1        0.0661
    104 H           2.3100   -0.2869    0.0000 H       1  UNL1        0.0661
@<TRIPOS>BOND
     1     1    35    1
     2     1    36    1
     3     2    35    2
     4     3     4    1
     5     3     5    1
     6     3    37    1
     7     3    38    1
     8     4     6    1
     9     4    39    1
    10     4    40    1
    11     5     7    1
    12     5    41    1
    13     5    42    1
    14     6     8    1
    15     6    43    1
    16     6    44    1
    17     7     9    1
    18     7    45    1
    19     7    46    1
    20     8    10    1
    21     8    47    1
    22     8    48    1
    23     9    11    1
    24     9    49    1
    25     9    50    1
    26    10    12    1
    27    10    51    1
    28    10    52    1
    29    11    13    1
    30    11    53    1
    31    11    54    1
    32    12    14    1
    33    12    55    1
    34    12    56    1
    35    13    15    1
    36    13    57    1
    37    13    58    1
    38    14    16    1
    39    14    59    1
    40    14    60    1
    41    15    17    1
    42    15    61    1
    43    15    62    1
    44    16    18    1
    45    16    63    1
    46    16    64    1
    47    17    19    1
    48    17    65    1
    49    17    66    1
    50    18    20    1
    51    18    67    1
    52    18    68    1
    53    19    21    1
    54    19    69    1
    55    19    70    1
    56    20    22    1
    57    20    71    1
    58    20    72    1
    59    21    23    1
    60    21    73    1
    61    21    74    1
    62    22    24    1
    63    22    75    1
    64    22    76    1
    65    23    25    1
    66    23    77    1
    67    23    78    1
    68    24    26    1
    69    24    79    1
    70    24    80    1
    71    25    27    1
    72    25    81    1
    73    25    82    1
    74    26    28    1
    75    26    83    1
    76    26    84    1
    77    27    29    1
    78    27    85    1
    79    27    86    1
    80    28    30    1
    81    28    87    1
    82    28    88    1
    83    29    31    1
    84    29    89    1
    85    29    90    1
    86    30    32    1
    87    30    91    1
    88    30    92    1
    89    31    33    1
    90    31    93    1
    91    31    94    1
    92    32    34    1
    93    32    95    1
    94    32    96    1
    95    33    35    1
    96    33    97    1
    97    33    98    1
    98    34    99    1
    99    34   100    1
   100    34   101    1
   101    36   102    1
   102    36   103    1
   103    36   104    1
