@<TRIPOS>MOLECULE
IMPHY009945
 16 16 0 0 0
SMALL
GASTEIGER

@<TRIPOS>ATOM
      1 O           2.0000    0.5000    0.0000 O.2     1  UNL1       -0.2890
      2 O           3.7320    1.5000    0.0000 O.2     1  UNL1       -0.2890
      3 C           3.7320   -1.5000    0.0000 C.3     1  UNL1       -0.0455
      4 C           4.5981   -1.0000    0.0000 C.3     1  UNL1       -0.0455
      5 C           2.8660   -1.0000    0.0000 C.3     1  UNL1        0.0134
      6 C           4.5981   -0.0000    0.0000 C.3     1  UNL1        0.0134
      7 C           2.8660    0.0000    0.0000 C.2     1  UNL1        0.1981
      8 C           3.7320    0.5000    0.0000 C.2     1  UNL1        0.1981
      9 H           3.3335   -1.9750    0.0000 H       1  UNL1        0.0269
     10 H           4.1306   -1.9750    0.0000 H       1  UNL1        0.0269
     11 H           4.8101   -1.5826    0.0000 H       1  UNL1        0.0269
     12 H           5.2087   -0.8923    0.0000 H       1  UNL1        0.0269
     13 H           2.2554   -0.8923    0.0000 H       1  UNL1        0.0346
     14 H           2.6540   -1.5826    0.0000 H       1  UNL1        0.0346
     15 H           5.2087   -0.1077    0.0000 H       1  UNL1        0.0346
     16 H           4.8101    0.5826    0.0000 H       1  UNL1        0.0346
@<TRIPOS>BOND
     1     1     7    2
     2     2     8    2
     3     3     4    1
     4     3     5    1
     5     3     9    1
     6     3    10    1
     7     4     6    1
     8     4    11    1
     9     4    12    1
    10     5     7    1
    11     5    13    1
    12     5    14    1
    13     6     8    1
    14     6    15    1
    15     6    16    1
    16     7     8    1
