@<TRIPOS>MOLECULE
IMPHY004438
 40 39 0 0 0
SMALL
GASTEIGER

@<TRIPOS>ATOM
      1 O           8.9282    0.4400    0.0000 O.3     1  UNL1       -0.4605
      2 O           9.7942   -1.0600    0.0000 O.2     1  UNL1       -0.2508
      3 C           5.4641    0.4400    0.0000 C.3     1  UNL1       -0.0285
      4 C           4.5981   -0.0600    0.0000 C.3     1  UNL1       -0.0308
      5 C           6.3301   -0.0600    0.0000 C.2     1  UNL1       -0.0731
      6 C           3.7320    0.4400    0.0000 C.2     1  UNL1       -0.0850
      7 C           7.1962    0.4400    0.0000 C.2     1  UNL1       -0.0480
      8 C           6.3301   -1.0600    0.0000 C.3     1  UNL1       -0.0437
      9 C           8.0622   -0.0600    0.0000 C.3     1  UNL1        0.1109
     10 C           2.8660   -0.0600    0.0000 C.2     1  UNL1       -0.0796
     11 C          10.6603    0.4400    0.0000 C.3     1  UNL1        0.0447
     12 C          11.5263   -0.0600    0.0000 C.3     1  UNL1       -0.0458
     13 C           9.7942   -0.0600    0.0000 C.2     1  UNL1        0.3074
     14 C           2.0000    0.4400    0.0000 C.3     1  UNL1       -0.0440
     15 C           2.8660   -1.0600    0.0000 C.3     1  UNL1       -0.0440
     16 C          12.3923    0.4400    0.0000 C.3     1  UNL1       -0.0648
     17 H           5.8626    0.9149    0.0000 H       1  UNL1        0.0313
     18 H           5.0656    0.9149    0.0000 H       1  UNL1        0.0313
     19 H           4.1996   -0.5349    0.0000 H       1  UNL1        0.0310
     20 H           4.9966   -0.5349    0.0000 H       1  UNL1        0.0310
     21 H           3.7320    1.0600    0.0000 H       1  UNL1        0.0572
     22 H           7.1962    1.0600    0.0000 H       1  UNL1        0.0605
     23 H           5.7101   -1.0600    0.0000 H       1  UNL1        0.0274
     24 H           6.3301   -1.6800    0.0000 H       1  UNL1        0.0274
     25 H           6.9501   -1.0600    0.0000 H       1  UNL1        0.0274
     26 H           7.6636   -0.5349    0.0000 H       1  UNL1        0.0743
     27 H           8.4607   -0.5349    0.0000 H       1  UNL1        0.0743
     28 H          11.0588    0.9149    0.0000 H       1  UNL1        0.0377
     29 H          10.2617    0.9149    0.0000 H       1  UNL1        0.0377
     30 H          11.1278   -0.5349    0.0000 H       1  UNL1        0.0268
     31 H          11.9248   -0.5349    0.0000 H       1  UNL1        0.0268
     32 H           2.2460   -1.0600    0.0000 H       1  UNL1        0.0274
     33 H           2.8660   -1.6800    0.0000 H       1  UNL1        0.0274
     34 H           3.4860   -1.0600    0.0000 H       1  UNL1        0.0274
     35 H           2.3100    0.9769    0.0000 H       1  UNL1        0.0274
     36 H           1.4631    0.7500    0.0000 H       1  UNL1        0.0274
     37 H           1.6900   -0.0969    0.0000 H       1  UNL1        0.0274
     38 H          12.7023   -0.0969    0.0000 H       1  UNL1        0.0230
     39 H          12.9292    0.7500    0.0000 H       1  UNL1        0.0230
     40 H          12.0823    0.9769    0.0000 H       1  UNL1        0.0230
@<TRIPOS>BOND
     1     1     9    1
     2     1    13    1
     3     2    13    2
     4     3     4    1
     5     3     5    1
     6     3    17    1
     7     3    18    1
     8     4     6    1
     9     4    19    1
    10     4    20    1
    11     5     7    2
    12     5     8    1
    13     6    10    2
    14     6    21    1
    15     7     9    1
    16     7    22    1
    17     8    23    1
    18     8    24    1
    19     8    25    1
    20     9    26    1
    21     9    27    1
    22    10    14    1
    23    10    15    1
    24    11    12    1
    25    11    13    1
    26    11    28    1
    27    11    29    1
    28    12    16    1
    29    12    30    1
    30    12    31    1
    31    14    35    1
    32    14    36    1
    33    14    37    1
    34    15    32    1
    35    15    33    1
    36    15    34    1
    37    16    38    1
    38    16    39    1
    39    16    40    1
