@<TRIPOS>MOLECULE
IMPHY010242
 59 61 0 0 0
SMALL
GASTEIGER

@<TRIPOS>ATOM
      1 O           8.0901   -0.1776    0.0000 O.3     1  UNL1       -0.4828
      2 O           8.0785    2.8917    0.0000 O.2     1  UNL1       -0.2917
      3 O           6.3301    2.8571    0.0000 O.3     1  UNL1       -0.5055
      4 O           4.5981   -0.1429    0.0000 O.3     1  UNL1       -0.4946
      5 O          12.4602    0.3229    0.0000 O.3     1  UNL1       -0.4913
      6 O          10.7166   -2.6704    0.0000 O.3     1  UNL1       -0.4913
      7 O          12.4525   -1.6771    0.0000 O.3     1  UNL1       -0.4885
      8 C           8.9962    0.3362    0.0000 C.3     1  UNL1        0.1324
      9 C           8.9962    1.3779    0.0000 C.3     1  UNL1        0.0520
     10 C           7.1962    1.3571    0.0000 C.ar    1  UNL1        0.1009
     11 C           7.1962    0.3571    0.0000 C.ar    1  UNL1        0.1389
     12 C           9.8602   -0.1671    0.0000 C.ar    1  UNL1        0.0002
     13 C           8.0901    1.8917    0.0000 C.2     1  UNL1        0.1740
     14 C           6.3301    1.8571    0.0000 C.ar    1  UNL1        0.1378
     15 C           5.4641    1.3571    0.0000 C.ar    1  UNL1        0.0402
     16 C           6.3301   -0.1429    0.0000 C.ar    1  UNL1        0.0230
     17 C           5.4641    0.3571    0.0000 C.ar    1  UNL1        0.1305
     18 C           9.8564   -1.1671    0.0000 C.ar    1  UNL1       -0.0094
     19 C          10.7282    0.3296    0.0000 C.ar    1  UNL1       -0.0094
     20 C           4.5981    1.8571    0.0000 C.3     1  UNL1       -0.0023
     21 C          11.5923   -0.1738    0.0000 C.ar    1  UNL1        0.1655
     22 C          10.7205   -1.6704    0.0000 C.ar    1  UNL1        0.1655
     23 C          11.5884   -1.1738    0.0000 C.ar    1  UNL1        0.2035
     24 C           3.7320    1.3571    0.0000 C.2     1  UNL1       -0.0807
     25 C           2.8660    1.8571    0.0000 C.2     1  UNL1       -0.0793
     26 C           4.5981   -1.1429    0.0000 C.3     1  UNL1        0.0788
     27 C           2.0000    1.3571    0.0000 C.3     1  UNL1       -0.0440
     28 C           2.8660    2.8571    0.0000 C.3     1  UNL1       -0.0440
     29 C          12.4641    1.3229    0.0000 C.3     1  UNL1        0.0790
     30 C           9.8487   -3.1671    0.0000 C.3     1  UNL1        0.0790
     31 C          13.3205   -1.1804    0.0000 C.3     1  UNL1        0.0791
     32 H           8.9926   -0.2837    0.0000 H       1  UNL1        0.0789
     33 H           9.6070    1.2718    0.0000 H       1  UNL1        0.0385
     34 H           9.2052    1.9616    0.0000 H       1  UNL1        0.0385
     35 H           6.3301   -0.7629    0.0000 H       1  UNL1        0.0691
     36 H           9.3183   -1.4750    0.0000 H       1  UNL1        0.0659
     37 H          10.7306    0.9496    0.0000 H       1  UNL1        0.0659
     38 H           4.9966    2.3320    0.0000 H       1  UNL1        0.0358
     39 H           4.1996    2.3320    0.0000 H       1  UNL1        0.0358
     40 H           3.7320    0.7371    0.0000 H       1  UNL1        0.0575
     41 H           5.7932    3.1671    0.0000 H       1  UNL1        0.2922
     42 H           3.9781   -1.1429    0.0000 H       1  UNL1        0.0660
     43 H           4.5981   -1.7629    0.0000 H       1  UNL1        0.0660
     44 H           5.2181   -1.1429    0.0000 H       1  UNL1        0.0660
     45 H           1.6900    1.8940    0.0000 H       1  UNL1        0.0274
     46 H           3.4860    2.8571    0.0000 H       1  UNL1        0.0274
     47 H           2.8660    3.4771    0.0000 H       1  UNL1        0.0274
     48 H           2.2460    2.8571    0.0000 H       1  UNL1        0.0274
     49 H           1.4631    1.0471    0.0000 H       1  UNL1        0.0274
     50 H           2.3100    0.8201    0.0000 H       1  UNL1        0.0274
     51 H          13.0841    1.3205    0.0000 H       1  UNL1        0.0660
     52 H          12.4665    1.9429    0.0000 H       1  UNL1        0.0660
     53 H          11.8441    1.3253    0.0000 H       1  UNL1        0.0660
     54 H           9.5408   -2.6289    0.0000 H       1  UNL1        0.0660
     55 H           9.3106   -3.4750    0.0000 H       1  UNL1        0.0660
     56 H          10.1566   -3.7052    0.0000 H       1  UNL1        0.0660
     57 H          13.6284   -1.7186    0.0000 H       1  UNL1        0.0660
     58 H          13.8586   -0.8725    0.0000 H       1  UNL1        0.0660
     59 H          13.0125   -0.6423    0.0000 H       1  UNL1        0.0660
@<TRIPOS>BOND
     1     1     8    1
     2     1    11    1
     3     2    13    2
     4     3    14    1
     5     3    41    1
     6     4    17    1
     7     4    26    1
     8     5    21    1
     9     5    29    1
    10     6    22    1
    11     6    30    1
    12     7    23    1
    13     7    31    1
    14     8     9    1
    15     8    12    1
    16     8    32    1
    17     9    13    1
    18     9    33    1
    19     9    34    1
    20    10    11   ar
    21    10    13    1
    22    10    14   ar
    23    11    16   ar
    24    12    18   ar
    25    12    19   ar
    26    14    15   ar
    27    15    17   ar
    28    15    20    1
    29    16    17   ar
    30    16    35    1
    31    18    22   ar
    32    18    36    1
    33    19    21   ar
    34    19    37    1
    35    20    24    1
    36    20    38    1
    37    20    39    1
    38    21    23   ar
    39    22    23   ar
    40    24    25    2
    41    24    40    1
    42    25    27    1
    43    25    28    1
    44    26    42    1
    45    26    43    1
    46    26    44    1
    47    27    45    1
    48    27    49    1
    49    27    50    1
    50    28    46    1
    51    28    47    1
    52    28    48    1
    53    29    51    1
    54    29    52    1
    55    29    53    1
    56    30    54    1
    57    30    55    1
    58    30    56    1
    59    31    57    1
    60    31    58    1
    61    31    59    1
