@<TRIPOS>MOLECULE
IMPHY009084
 66 68 0 0 0
SMALL
GASTEIGER

@<TRIPOS>ATOM
      1 O           6.8671    0.8256    0.0000 O.3     1  UNL1       -0.3125
      2 O           6.5580    2.7766    0.0000 O.3     1  UNL1       -0.3362
      3 O           5.1350    0.8256    0.0000 O.3     1  UNL1       -0.3404
      4 O           6.8671   -1.1744    0.0000 O.3     1  UNL1       -0.3378
      5 O           6.0010   -2.6744    0.0000 O.3     1  UNL1       -0.3405
      6 O           8.4548    1.0166    0.0000 O.3     1  UNL1       -0.3837
      7 O           5.1350   -2.1744    0.0000 O.3     1  UNL1       -0.3864
      8 O           9.1271    3.0856    0.0000 O.3     1  UNL1       -0.3864
      9 O           3.4030   -1.1744    0.0000 O.3     1  UNL1       -0.3865
     10 O           8.5991   -2.1744    0.0000 O.3     1  UNL1       -0.3841
     11 O           5.1729    2.1857    0.0000 O.3     1  UNL1       -0.3896
     12 O           8.5991   -4.1744    0.0000 O.3     1  UNL1       -0.3864
     13 O           6.8671   -5.1744    0.0000 O.3     1  UNL1       -0.3865
     14 O           6.5010    4.8644    0.0000 O.3     1  UNL1       -0.3924
     15 O           2.5369    0.3256    0.0000 O.3     1  UNL1       -0.3924
     16 O           4.2690   -3.6744    0.0000 O.3     1  UNL1       -0.3924
     17 C           6.8671    1.8256    0.0000 C.3     1  UNL1        0.2252
     18 C           6.0010   -0.6744    0.0000 C.3     1  UNL1        0.1407
     19 C           6.0010    0.3256    0.0000 C.3     1  UNL1        0.1916
     20 C           7.8671    1.8256    0.0000 C.3     1  UNL1        0.1395
     21 C           5.1350   -1.1744    0.0000 C.3     1  UNL1        0.1144
     22 C           8.1761    2.7766    0.0000 C.3     1  UNL1        0.1145
     23 C           4.2690   -0.6744    0.0000 C.3     1  UNL1        0.1119
     24 C           7.3671    3.3644    0.0000 C.3     1  UNL1        0.1134
     25 C           4.2690    0.3256    0.0000 C.3     1  UNL1        0.1130
     26 C           6.8671   -2.1744    0.0000 C.3     1  UNL1        0.1885
     27 C           7.7331   -2.6744    0.0000 C.3     1  UNL1        0.1341
     28 C           5.9160    1.5166    0.0000 C.3     1  UNL1        0.1009
     29 C           7.7331   -3.6744    0.0000 C.3     1  UNL1        0.1141
     30 C           6.8671   -4.1744    0.0000 C.3     1  UNL1        0.1119
     31 C           6.0010   -3.6744    0.0000 C.3     1  UNL1        0.1130
     32 C           7.3671    4.3644    0.0000 C.3     1  UNL1        0.0730
     33 C           3.4030    0.8256    0.0000 C.3     1  UNL1        0.0730
     34 C           5.1350   -4.1744    0.0000 C.3     1  UNL1        0.0730
     35 H           6.0010   -1.2944    0.0000 H       1  UNL1        0.0675
     36 H           6.0010    0.9456    0.0000 H       1  UNL1        0.0939
     37 H           8.4794    1.9226    0.0000 H       1  UNL1        0.0675
     38 H           4.5981   -1.4844    0.0000 H       1  UNL1        0.0648
     39 H           8.2731    3.3890    0.0000 H       1  UNL1        0.0648
     40 H           3.7320   -0.3644    0.0000 H       1  UNL1        0.0647
     41 H           6.8146    3.6459    0.0000 H       1  UNL1        0.0647
     42 H           4.2690    0.9456    0.0000 H       1  UNL1        0.0647
     43 H           7.4040   -1.8644    0.0000 H       1  UNL1        0.0938
     44 H           8.2700   -2.9844    0.0000 H       1  UNL1        0.0671
     45 H           5.4274    1.1348    0.0000 H       1  UNL1        0.0612
     46 H           6.2071    0.9691    0.0000 H       1  UNL1        0.0612
     47 H           7.7331   -4.2944    0.0000 H       1  UNL1        0.0648
     48 H           6.3301   -4.4844    0.0000 H       1  UNL1        0.0647
     49 H           5.4641   -3.3644    0.0000 H       1  UNL1        0.0647
     50 H           7.9776    4.2568    0.0000 H       1  UNL1        0.0584
     51 H           7.5791    4.9470    0.0000 H       1  UNL1        0.0584
     52 H           3.8015    1.3005    0.0000 H       1  UNL1        0.0584
     53 H           3.0044    1.3005    0.0000 H       1  UNL1        0.0584
     54 H           9.0714    1.0814    0.0000 H       1  UNL1        0.2101
     55 H           4.5981   -2.4844    0.0000 H       1  UNL1        0.2100
     56 H           9.2560    3.6921    0.0000 H       1  UNL1        0.2100
     57 H           4.7365   -4.6494    0.0000 H       1  UNL1        0.0584
     58 H           5.5335   -4.6494    0.0000 H       1  UNL1        0.0584
     59 H           3.4030   -1.7944    0.0000 H       1  UNL1        0.2100
     60 H           9.1360   -2.4844    0.0000 H       1  UNL1        0.2101
     61 H           4.5832    1.9941    0.0000 H       1  UNL1        0.2096
     62 H           8.5991   -4.7944    0.0000 H       1  UNL1        0.2100
     63 H           6.3301   -5.4844    0.0000 H       1  UNL1        0.2100
     64 H           6.5010    5.4844    0.0000 H       1  UNL1        0.2095
     65 H           2.0000    0.6356    0.0000 H       1  UNL1        0.2095
     66 H           3.7320   -3.9844    0.0000 H       1  UNL1        0.2095
@<TRIPOS>BOND
     1    17     1    1
     2    19     1    1
     3     2    17    1
     4     2    24    1
     5     3    19    1
     6     3    25    1
     7    18     4    1
     8    26     4    1
     9     5    26    1
    10     5    31    1
    11    20     6    1
    12     6    54    1
    13    21     7    1
    14     7    55    1
    15    22     8    1
    16     8    56    1
    17    23     9    1
    18     9    59    1
    19    27    10    1
    20    10    60    1
    21    11    28    1
    22    11    61    1
    23    29    12    1
    24    12    62    1
    25    30    13    1
    26    13    63    1
    27    14    32    1
    28    14    64    1
    29    15    33    1
    30    15    65    1
    31    16    34    1
    32    16    66    1
    33    17    20    1
    34    17    28    1
    35    18    19    1
    36    18    21    1
    37    18    35    1
    38    19    36    1
    39    20    22    1
    40    20    37    1
    41    21    23    1
    42    21    38    1
    43    22    24    1
    44    22    39    1
    45    23    25    1
    46    23    40    1
    47    24    32    1
    48    24    41    1
    49    25    33    1
    50    25    42    1
    51    26    27    1
    52    26    43    1
    53    27    29    1
    54    27    44    1
    55    28    45    1
    56    28    46    1
    57    29    30    1
    58    29    47    1
    59    30    31    1
    60    30    48    1
    61    31    34    1
    62    31    49    1
    63    32    50    1
    64    32    51    1
    65    33    52    1
    66    33    53    1
    67    34    57    1
    68    34    58    1
