@<TRIPOS>MOLECULE
IMPHY008357
 45 48 0 0 0
SMALL
GASTEIGER

@<TRIPOS>ATOM
      1 O           7.0165    2.6557    0.0000 O.3     1  UNL1       -0.4760
      2 O           8.3036    1.4968    0.0000 O.2     1  UNL1       -0.2434
      3 N           6.9654    0.0105    0.0000 N.ar    1  UNL1       -0.1817
      4 N           4.5124   -1.1070    0.0000 N.ar    1  UNL1       -0.3493
      5 C           6.6564    0.9615    0.0000 C.3     1  UNL1        0.2600
      6 C           5.6782    1.1695    0.0000 C.3     1  UNL1        0.0487
      7 C           6.2962   -0.7327    0.0000 C.ar    1  UNL1        0.2354
      8 C           5.0091    0.4263    0.0000 C.ar    1  UNL1       -0.0016
      9 C           5.3181   -0.5247    0.0000 C.ar    1  UNL1        0.1162
     10 C           6.6028   -1.7282    0.0000 C.ar    1  UNL1        0.0265
     11 C           4.0150    0.4237    0.0000 C.ar    1  UNL1        0.0039
     12 C           7.6200   -1.9526    0.0000 C.ar    1  UNL1       -0.0299
     13 C           7.9875   -0.1903    0.0000 C.ar    1  UNL1        0.1758
     14 C           3.7086   -0.5220    0.0000 C.ar    1  UNL1        0.0473
     15 C           8.3170   -1.1785    0.0000 C.ar    1  UNL1        0.0166
     16 C           7.3255    1.7047    0.0000 C.2     1  UNL1        0.3749
     17 C           7.9253   -2.9048    0.0000 C.3     1  UNL1       -0.0296
     18 C           5.9251   -2.4635    0.0000 C.3     1  UNL1       -0.0331
     19 C           3.3334    1.2032    0.0000 C.ar    1  UNL1       -0.0523
     20 C           2.6994   -0.7537    0.0000 C.ar    1  UNL1       -0.0378
     21 C           9.2959   -1.3826    0.0000 C.3     1  UNL1       -0.0338
     22 C           2.3191    0.9949    0.0000 C.ar    1  UNL1       -0.0611
     23 C           2.0000    0.0098    0.0000 C.ar    1  UNL1       -0.0598
     24 C           8.9027   -3.1165    0.0000 C.3     1  UNL1       -0.0612
     25 H           7.2628    0.8326    0.0000 H       1  UNL1        0.1195
     26 H           5.9105    1.7443    0.0000 H       1  UNL1        0.0385
     27 H           5.1524    1.4980    0.0000 H       1  UNL1        0.0385
     28 H           4.5113   -1.7270    0.0000 H       1  UNL1        0.1661
     29 H           8.3970    0.2752    0.0000 H       1  UNL1        0.1379
     30 H           7.3110   -2.9887    0.0000 H       1  UNL1        0.0311
     31 H           7.9013   -3.5244    0.0000 H       1  UNL1        0.0311
     32 H           5.4692   -2.0434    0.0000 H       1  UNL1        0.0280
     33 H           5.5050   -2.9194    0.0000 H       1  UNL1        0.0280
     34 H           6.3810   -2.8837    0.0000 H       1  UNL1        0.0280
     35 H           3.5313    1.7908    0.0000 H       1  UNL1        0.0624
     36 H           2.5152   -1.3457    0.0000 H       1  UNL1        0.0638
     37 H           9.1693   -1.9896    0.0000 H       1  UNL1        0.0280
     38 H           9.9029   -1.5092    0.0000 H       1  UNL1        0.0280
     39 H           9.4225   -0.7757    0.0000 H       1  UNL1        0.0280
     40 H           1.9056    1.4569    0.0000 H       1  UNL1        0.0618
     41 H           1.3942   -0.1219    0.0000 H       1  UNL1        0.0618
     42 H           8.7714   -3.7224    0.0000 H       1  UNL1        0.0233
     43 H           9.5086   -3.2477    0.0000 H       1  UNL1        0.0233
     44 H           9.0339   -2.5105    0.0000 H       1  UNL1        0.0233
     45 H           7.4313    3.1165    0.0000 H       1  UNL1        0.2953
@<TRIPOS>UNITY_ATOM_ATTR
3 1
charge 1
@<TRIPOS>BOND
     1     1    16    1
     2     1    45    1
     3     2    16    2
     4     3     5    1
     5     3     7   ar
     6     3    13   ar
     7     4     9   ar
     8     4    14   ar
     9     4    28    1
    10     5     6    1
    11     5    16    1
    12     5    25    1
    13     6     8    1
    14     6    26    1
    15     6    27    1
    16     7     9    1
    17     7    10   ar
    18     8     9   ar
    19     8    11   ar
    20    10    12   ar
    21    10    18    1
    22    11    14   ar
    23    11    19   ar
    24    12    15   ar
    25    12    17    1
    26    13    15   ar
    27    13    29    1
    28    14    20   ar
    29    15    21    1
    30    17    24    1
    31    17    30    1
    32    17    31    1
    33    18    32    1
    34    18    33    1
    35    18    34    1
    36    19    22   ar
    37    19    35    1
    38    20    23   ar
    39    20    36    1
    40    21    37    1
    41    21    38    1
    42    21    39    1
    43    22    23   ar
    44    22    40    1
    45    23    41    1
    46    24    42    1
    47    24    43    1
    48    24    44    1
