@<TRIPOS>MOLECULE
IMPHY016286
 10 9 0 0 0
SMALL
GASTEIGER

@<TRIPOS>ATOM
      1 N           4.5981    1.0000    0.0000 N.1     1  UNL1       -0.1912
      2 C           2.0000    0.5000    0.0000 C.3     1  UNL1       -0.0304
      3 C           2.8660    0.0000    0.0000 C.2     1  UNL1        0.0192
      4 C           2.8660   -1.0000    0.0000 C.2     1  UNL1       -0.0856
      5 C           3.7320    0.5000    0.0000 C.1     1  UNL1        0.0939
      6 H           2.3100    1.0369    0.0000 H       1  UNL1        0.0284
      7 H           1.4631    0.8100    0.0000 H       1  UNL1        0.0284
      8 H           1.6900   -0.0369    0.0000 H       1  UNL1        0.0284
      9 H           2.3291   -1.3100    0.0000 H       1  UNL1        0.0544
     10 H           3.4030   -1.3100    0.0000 H       1  UNL1        0.0544
@<TRIPOS>BOND
     1     1     5    3
     2     2     3    1
     3     2     6    1
     4     2     7    1
     5     2     8    1
     6     3     4    2
     7     3     5    1
     8     4     9    1
     9     4    10    1
