@<TRIPOS>MOLECULE
IMPHY014653
 72 74 0 0 0
SMALL
GASTEIGER

@<TRIPOS>ATOM
      1 O           0.5369    4.9823    0.0000 O.3     1  HOH1       -0.4105
      2 O           7.9942    0.0000    0.0000 O.3     2  HOH2       -0.4105
      3 N          10.6931    8.8528    0.0000 N.3     3  UNL3       -0.3018
      4 N           4.5068    4.1614    0.0000 N.3     3  UNL3       -0.3051
      5 C           9.8999    7.2138    0.0000 C.3     3  UNL3       -0.0092
      6 C           9.8999    6.2138    0.0000 C.3     3  UNL3       -0.0305
      7 C          10.8462    7.5185    0.0000 C.3     3  UNL3       -0.0186
      8 C           9.0339    5.7138    0.0000 C.3     3  UNL3       -0.0306
      9 C           8.1679    6.2138    0.0000 C.3     3  UNL3       -0.0285
     10 C           9.0339    7.7138    0.0000 C.3     3  UNL3       -0.0454
     11 C          10.8462    5.9090    0.0000 C.3     3  UNL3       -0.0491
     12 C           9.8018    8.1971    0.0000 C.3     3  UNL3        0.0051
     13 C          11.4298    6.7138    0.0000 C.3     3  UNL3       -0.0480
     14 C          11.3403    8.3743    0.0000 C.3     3  UNL3        0.0107
     15 C           8.1679    7.2138    0.0000 C.3     3  UNL3       -0.0486
     16 C           7.2579    5.7069    0.0000 C.3     3  UNL3       -0.0079
     17 C           9.0500    4.6722    0.0000 C.3     3  UNL3       -0.0311
     18 C           7.2499    4.6653    0.0000 C.2     3  UNL3       -0.0658
     19 C           6.3310    6.2710    0.0000 C.3     3  UNL3       -0.0422
     20 C           8.1519    4.1445    0.0000 C.2     3  UNL3       -0.0839
     21 C          12.2916    8.6825    0.0000 C.3     3  UNL3       -0.0492
     22 C           7.2656    6.7069    0.0000 C.3     3  UNL3       -0.0556
     23 C           6.3144    4.1156    0.0000 C.3     3  UNL3       -0.0156
     24 C           5.3832    5.7430    0.0000 C.3     3  UNL3       -0.0363
     25 C          10.6957    9.8528    0.0000 C.3     3  UNL3       -0.0125
     26 C           5.3748    4.6581    0.0000 C.3     3  UNL3        0.0135
     27 C           3.6428    4.6648    0.0000 C.3     3  UNL3       -0.0128
     28 C           4.5030    3.1614    0.0000 C.3     3  UNL3       -0.0128
     29 H           9.9899    5.3685    0.0000 H       3  UNL3        0.0309
     30 H          11.6950    7.5626    0.0000 H       3  UNL3        0.0322
     31 H           9.7733    5.2944    0.0000 H       3  UNL3        0.0309
     32 H           8.9040    6.6388    0.0000 H       3  UNL3        0.0312
     33 H           9.4324    8.1887    0.0000 H       3  UNL3        0.0271
     34 H           8.6354    8.1887    0.0000 H       3  UNL3        0.0271
     35 H          10.5951    5.3421    0.0000 H       3  UNL3        0.0268
     36 H          11.3835    5.5998    0.0000 H       3  UNL3        0.0268
     37 H           9.5287    8.7537    0.0000 H       3  UNL3        0.0432
     38 H           9.2055    8.0270    0.0000 H       3  UNL3        0.0432
     39 H          11.8906    6.2990    0.0000 H       3  UNL3        0.0269
     40 H          11.8906    7.1285    0.0000 H       3  UNL3        0.0269
     41 H          11.4401    8.9862    0.0000 H       3  UNL3        0.0463
     42 H           7.9558    7.7964    0.0000 H       3  UNL3        0.0268
     43 H           7.5573    7.1061    0.0000 H       3  UNL3        0.0268
     44 H           9.2680    4.0918    0.0000 H       3  UNL3        0.0310
     45 H           9.6591    4.7878    0.0000 H       3  UNL3        0.0310
     46 H           6.7393    6.7376    0.0000 H       3  UNL3        0.0274
     47 H           5.9411    6.7530    0.0000 H       3  UNL3        0.0274
     48 H           8.1543    3.5245    0.0000 H       3  UNL3        0.0572
     49 H          12.4827    8.0927    0.0000 H       3  UNL3        0.0245
     50 H          12.8814    8.8736    0.0000 H       3  UNL3        0.0245
     51 H          12.1005    9.2723    0.0000 H       3  UNL3        0.0245
     52 H           7.8856    6.7021    0.0000 H       3  UNL3        0.0238
     53 H           7.2704    7.3269    0.0000 H       3  UNL3        0.0238
     54 H           6.6456    6.7117    0.0000 H       3  UNL3        0.0238
     55 H           5.9171    3.6396    0.0000 H       3  UNL3        0.0325
     56 H           6.7154    3.6427    0.0000 H       3  UNL3        0.0325
     57 H           5.1786    6.3283    0.0000 H       3  UNL3        0.0281
     58 H           4.7715    5.6417    0.0000 H       3  UNL3        0.0281
     59 H          11.3157    9.8512    0.0000 H       3  UNL3        0.0391
     60 H          10.6973   10.4728    0.0000 H       3  UNL3        0.0391
     61 H          10.0757    9.8544    0.0000 H       3  UNL3        0.0391
     62 H           4.8397    4.9712    0.0000 H       3  UNL3        0.0465
     63 H           3.9548    5.2005    0.0000 H       3  UNL3        0.0391
     64 H           3.1070    4.9768    0.0000 H       3  UNL3        0.0391
     65 H           3.3307    4.1290    0.0000 H       3  UNL3        0.0391
     66 H           3.8830    3.1638    0.0000 H       3  UNL3        0.0391
     67 H           4.5006    2.5414    0.0000 H       3  UNL3        0.0391
     68 H           5.1230    3.1590    0.0000 H       3  UNL3        0.0391
     69 H           1.0739    5.2923    0.0000 H       0  HOH0        0.2052
     70 H           0.0000    5.2923    0.0000 H       0  HOH0        0.2052
     71 H           8.5312    0.3100    0.0000 H       0  HOH0        0.2052
     72 H           7.4573    0.3100    0.0000 H       0  HOH0        0.2052
@<TRIPOS>BOND
     1     1    69    1
     2     1    70    1
     3     2    71    1
     4     2    72    1
     5     3    12    1
     6     3    14    1
     7     3    25    1
     8    26     4    1
     9     4    27    1
    10     4    28    1
    11     5     6    1
    12     5     7    1
    13     5    10    1
    14     5    12    1
    15     6     8    1
    16     6    11    1
    17     6    29    1
    18     7    13    1
    19     7    14    1
    20     7    30    1
    21     8     9    1
    22     8    17    1
    23     8    31    1
    24     9    15    1
    25     9    16    1
    26     9    32    1
    27    10    15    1
    28    10    33    1
    29    10    34    1
    30    11    13    1
    31    11    35    1
    32    11    36    1
    33    12    37    1
    34    12    38    1
    35    13    39    1
    36    13    40    1
    37    14    21    1
    38    14    41    1
    39    15    42    1
    40    15    43    1
    41    16    18    1
    42    16    19    1
    43    16    22    1
    44    17    20    1
    45    17    44    1
    46    17    45    1
    47    18    20    2
    48    18    23    1
    49    19    24    1
    50    19    46    1
    51    19    47    1
    52    20    48    1
    53    21    49    1
    54    21    50    1
    55    21    51    1
    56    22    52    1
    57    22    53    1
    58    22    54    1
    59    23    26    1
    60    23    55    1
    61    23    56    1
    62    24    26    1
    63    24    57    1
    64    24    58    1
    65    25    59    1
    66    25    60    1
    67    25    61    1
    68    26    62    1
    69    27    63    1
    70    27    64    1
    71    27    65    1
    72    28    66    1
    73    28    67    1
    74    28    68    1
