@<TRIPOS>MOLECULE
IMPHY014497
 107 109 0 0 0
SMALL
GASTEIGER

@<TRIPOS>ATOM
      1 O           7.7610   -1.9917    0.0000 O.2     1  UNL1       -0.4884
      2 O           6.0010    1.0429    0.0000 O.2     1  UNL1       -0.2956
      3 O           4.2690   -1.9571    0.0000 O.2     1  UNL1       -0.2911
      4 O           6.8671   -3.4571    0.0000 O.2     1  UNL1       -0.2864
      5 O           2.5369   -2.9571    0.0000 O.3     1  UNL1       -0.5033
      6 O           2.5369   -4.9571    0.0000 O.3     1  UNL1       -0.5033
      7 C           6.8671   -0.4571    0.0000 C.3     1  UNL1        0.0913
      8 C           8.6671   -0.4362    0.0000 C.3     1  UNL1        0.0031
      9 C           7.7610    0.0776    0.0000 C.3     1  UNL1       -0.0266
     10 C           8.6671   -1.4779    0.0000 C.3     1  UNL1        0.1078
     11 C           6.8671   -1.4571    0.0000 C.2     1  UNL1        0.1262
     12 C           6.0010    0.0429    0.0000 C.2     1  UNL1        0.1578
     13 C           6.8671    0.5429    0.0000 C.3     1  UNL1       -0.0151
     14 C           9.5312    0.0671    0.0000 C.3     1  UNL1       -0.0280
     15 C           5.1350   -0.4571    0.0000 C.3     1  UNL1        0.0849
     16 C           6.0010   -1.9571    0.0000 C.2     1  UNL1        0.1036
     17 C           9.6671   -1.4817    0.0000 C.3     1  UNL1       -0.0249
     18 C           9.1637   -2.3458    0.0000 C.3     1  UNL1       -0.0249
     19 C           5.1350   -1.4571    0.0000 C.2     1  UNL1        0.1805
     20 C           4.2690    0.0429    0.0000 C.3     1  UNL1       -0.0178
     21 C           7.7331    1.0429    0.0000 C.2     1  UNL1       -0.0837
     22 C           9.5273    1.0671    0.0000 C.2     1  UNL1       -0.0846
     23 C           6.0010   -2.9571    0.0000 C.2     1  UNL1        0.1998
     24 C           7.7331    2.0429    0.0000 C.2     1  UNL1       -0.0762
     25 C          10.3914    1.5704    0.0000 C.2     1  UNL1       -0.0762
     26 C           4.2690    1.0429    0.0000 C.2     1  UNL1       -0.0842
     27 C           5.1350   -3.4571    0.0000 C.ar    1  UNL1        0.0262
     28 C           8.5991    2.5429    0.0000 C.3     1  UNL1       -0.0286
     29 C          10.3875    2.5704    0.0000 C.3     1  UNL1       -0.0286
     30 C           6.8671    2.5429    0.0000 C.3     1  UNL1       -0.0438
     31 C          11.2593    1.0738    0.0000 C.3     1  UNL1       -0.0438
     32 C           3.4030    1.5429    0.0000 C.2     1  UNL1       -0.0796
     33 C           8.5991    3.5429    0.0000 C.3     1  UNL1       -0.0308
     34 C          11.2516    3.0737    0.0000 C.3     1  UNL1       -0.0308
     35 C           4.2690   -2.9571    0.0000 C.ar    1  UNL1       -0.0057
     36 C           5.1350   -4.4571    0.0000 C.ar    1  UNL1       -0.0472
     37 C           3.4030    2.5429    0.0000 C.3     1  UNL1       -0.0440
     38 C           2.5369    1.0429    0.0000 C.3     1  UNL1       -0.0440
     39 C           3.4030   -3.4571    0.0000 C.ar    1  UNL1        0.1589
     40 C           4.2690   -4.9571    0.0000 C.ar    1  UNL1       -0.0159
     41 C           9.4651    4.0429    0.0000 C.2     1  UNL1       -0.0850
     42 C          11.2478    4.0737    0.0000 C.2     1  UNL1       -0.0850
     43 C           3.4030   -4.4571    0.0000 C.ar    1  UNL1        0.1583
     44 C           9.4651    5.0429    0.0000 C.2     1  UNL1       -0.0796
     45 C          12.1119    4.5771    0.0000 C.2     1  UNL1       -0.0796
     46 C           8.5991    5.5429    0.0000 C.3     1  UNL1       -0.0440
     47 C          10.3312    5.5429    0.0000 C.3     1  UNL1       -0.0440
     48 C          12.9798    4.0804    0.0000 C.3     1  UNL1       -0.0440
     49 C          12.1080    5.5771    0.0000 C.3     1  UNL1       -0.0440
     50 H           8.6635    0.1837    0.0000 H       1  UNL1        0.0342
     51 H           8.1546    0.5566    0.0000 H       1  UNL1        0.0283
     52 H           7.3564    0.5474    0.0000 H       1  UNL1        0.0283
     53 H           6.6550    1.1256    0.0000 H       1  UNL1        0.0321
     54 H           6.2565    0.4353    0.0000 H       1  UNL1        0.0321
     55 H           9.7455   -0.5147    0.0000 H       1  UNL1        0.0311
     56 H          10.1413    0.1771    0.0000 H       1  UNL1        0.0311
     57 H           5.1350    0.1629    0.0000 H       1  UNL1        0.0462
     58 H           9.6647   -2.1017    0.0000 H       1  UNL1        0.0268
     59 H          10.2871   -1.4841    0.0000 H       1  UNL1        0.0268
     60 H           9.6694   -0.8617    0.0000 H       1  UNL1        0.0268
     61 H           8.6256   -2.6538    0.0000 H       1  UNL1        0.0268
     62 H           9.4717   -2.8840    0.0000 H       1  UNL1        0.0268
     63 H           9.7019   -2.0379    0.0000 H       1  UNL1        0.0268
     64 H           3.6584    0.1506    0.0000 H       1  UNL1        0.0318
     65 H           4.0569   -0.5397    0.0000 H       1  UNL1        0.0318
     66 H           8.2700    0.7329    0.0000 H       1  UNL1        0.0572
     67 H           8.9892    1.3750    0.0000 H       1  UNL1        0.0572
     68 H           4.8059    1.3529    0.0000 H       1  UNL1        0.0572
     69 H           8.8112    1.9603    0.0000 H       1  UNL1        0.0313
     70 H           9.2097    2.6506    0.0000 H       1  UNL1        0.0313
     71 H          10.1732    3.1522    0.0000 H       1  UNL1        0.0313
     72 H           9.7774    2.4604    0.0000 H       1  UNL1        0.0313
     73 H           7.1771    3.0799    0.0000 H       1  UNL1        0.0274
     74 H           6.3301    2.8529    0.0000 H       1  UNL1        0.0274
     75 H           6.5571    2.0060    0.0000 H       1  UNL1        0.0274
     76 H          10.9514    0.5356    0.0000 H       1  UNL1        0.0274
     77 H          11.7975    0.7658    0.0000 H       1  UNL1        0.0274
     78 H          11.5673    1.6119    0.0000 H       1  UNL1        0.0274
     79 H           8.3871    4.1255    0.0000 H       1  UNL1        0.0310
     80 H           7.9885    3.4353    0.0000 H       1  UNL1        0.0310
     81 H          11.4659    2.4920    0.0000 H       1  UNL1        0.0310
     82 H          11.8618    3.1838    0.0000 H       1  UNL1        0.0310
     83 H           4.2690   -2.3371    0.0000 H       1  UNL1        0.0662
     84 H           5.6720   -4.7671    0.0000 H       1  UNL1        0.0626
     85 H           4.0230    2.5429    0.0000 H       1  UNL1        0.0274
     86 H           3.4030    3.1629    0.0000 H       1  UNL1        0.0274
     87 H           2.7830    2.5429    0.0000 H       1  UNL1        0.0274
     88 H           2.2269    1.5799    0.0000 H       1  UNL1        0.0274
     89 H           2.0000    0.7329    0.0000 H       1  UNL1        0.0274
     90 H           2.8469    0.5060    0.0000 H       1  UNL1        0.0274
     91 H           4.2690   -5.5771    0.0000 H       1  UNL1        0.0655
     92 H          10.0021    3.7329    0.0000 H       1  UNL1        0.0572
     93 H          10.7097    4.3817    0.0000 H       1  UNL1        0.0572
     94 H           2.0000   -3.2671    0.0000 H       1  UNL1        0.2923
     95 H           2.5369   -5.5771    0.0000 H       1  UNL1        0.2923
     96 H           8.9091    6.0799    0.0000 H       1  UNL1        0.0274
     97 H           8.0622    5.8529    0.0000 H       1  UNL1        0.0274
     98 H           8.2891    5.0060    0.0000 H       1  UNL1        0.0274
     99 H          10.6412    5.0060    0.0000 H       1  UNL1        0.0274
    100 H          10.8681    5.8529    0.0000 H       1  UNL1        0.0274
    101 H          10.0212    6.0799    0.0000 H       1  UNL1        0.0274
    102 H          12.6719    3.5423    0.0000 H       1  UNL1        0.0274
    103 H          13.5179    3.7725    0.0000 H       1  UNL1        0.0274
    104 H          13.2877    4.6185    0.0000 H       1  UNL1        0.0274
    105 H          12.7280    5.5794    0.0000 H       1  UNL1        0.0274
    106 H          12.1056    6.1971    0.0000 H       1  UNL1        0.0274
    107 H          11.4880    5.5747    0.0000 H       1  UNL1        0.0274
@<TRIPOS>BOND
     1     1    10    1
     2     1    11    1
     3     2    12    2
     4     3    19    2
     5     4    23    2
     6     5    39    1
     7     5    94    1
     8     6    43    1
     9     6    95    1
    10     7     9    1
    11     7    11    1
    12     7    12    1
    13     7    13    1
    14     8     9    1
    15     8    10    1
    16     8    14    1
    17     8    50    1
    18     9    51    1
    19     9    52    1
    20    10    17    1
    21    10    18    1
    22    11    16    2
    23    12    15    1
    24    13    21    1
    25    13    53    1
    26    13    54    1
    27    14    22    1
    28    14    55    1
    29    14    56    1
    30    15    19    1
    31    15    20    1
    32    15    57    1
    33    16    19    1
    34    16    23    1
    35    17    58    1
    36    17    59    1
    37    17    60    1
    38    18    61    1
    39    18    62    1
    40    18    63    1
    41    20    26    1
    42    20    64    1
    43    20    65    1
    44    21    24    2
    45    21    66    1
    46    22    25    2
    47    22    67    1
    48    23    27    1
    49    24    28    1
    50    24    30    1
    51    25    29    1
    52    25    31    1
    53    26    32    2
    54    26    68    1
    55    27    35   ar
    56    27    36   ar
    57    28    33    1
    58    28    69    1
    59    28    70    1
    60    29    34    1
    61    29    71    1
    62    29    72    1
    63    30    73    1
    64    30    74    1
    65    30    75    1
    66    31    76    1
    67    31    77    1
    68    31    78    1
    69    32    37    1
    70    32    38    1
    71    33    41    1
    72    33    79    1
    73    33    80    1
    74    34    42    1
    75    34    81    1
    76    34    82    1
    77    35    39   ar
    78    35    83    1
    79    36    40   ar
    80    36    84    1
    81    37    85    1
    82    37    86    1
    83    37    87    1
    84    38    88    1
    85    38    89    1
    86    38    90    1
    87    39    43   ar
    88    40    43   ar
    89    40    91    1
    90    41    44    2
    91    41    92    1
    92    42    45    2
    93    42    93    1
    94    44    46    1
    95    44    47    1
    96    45    48    1
    97    45    49    1
    98    46    96    1
    99    46    97    1
   100    46    98    1
   101    47    99    1
   102    47   100    1
   103    47   101    1
   104    48   102    1
   105    48   103    1
   106    48   104    1
   107    49   105    1
   108    49   106    1
   109    49   107    1
