@<TRIPOS>MOLECULE
IMPHY013605
 61 64 0 0 0
SMALL
GASTEIGER

@<TRIPOS>ATOM
      1 O           7.9288   -1.3938    0.0000 O.3     1  UNL1       -0.3876
      2 O           8.5677    1.8625    0.0000 O.3     1  UNL1       -0.3853
      3 O           7.0628    2.1062    0.0000 O.3     1  UNL1       -0.3885
      4 O           5.3307    1.1062    0.0000 O.3     1  UNL1       -0.3889
      5 O          10.5979    1.0890    0.0000 O.3     1  UNL1       -0.3892
      6 O           2.5357   -2.4462    0.0000 O.3     1  UNL1       -0.3915
      7 C           7.9288    0.6062    0.0000 C.3     1  UNL1        0.0563
      8 C           7.9288   -0.3938    0.0000 C.3     1  UNL1        0.0801
      9 C           7.0628   -0.8938    0.0000 C.3     1  UNL1       -0.0020
     10 C           6.1968   -0.3938    0.0000 C.3     1  UNL1        0.0023
     11 C           8.8750    0.9109    0.0000 C.3     1  UNL1        0.1020
     12 C           7.0628    1.1062    0.0000 C.3     1  UNL1        0.0920
     13 C           6.1968    0.6062    0.0000 C.3     1  UNL1        0.0857
     14 C           5.2868   -0.9007    0.0000 C.3     1  UNL1       -0.0053
     15 C           8.8750   -0.6986    0.0000 C.3     1  UNL1       -0.0203
     16 C           9.4586    0.1062    0.0000 C.3     1  UNL1       -0.0182
     17 C           7.0789   -1.9353    0.0000 C.3     1  UNL1       -0.0287
     18 C           7.9288    1.6062    0.0000 C.3     1  UNL1       -0.0517
     19 C           5.2787   -1.9423    0.0000 C.2     1  UNL1       -0.0648
     20 C           9.6851    1.4973    0.0000 C.3     1  UNL1        0.0818
     21 C           4.3599   -0.3366    0.0000 C.3     1  UNL1       -0.0412
     22 C           6.1808   -2.4631    0.0000 C.2     1  UNL1       -0.0838
     23 C           5.2945    0.0993    0.0000 C.3     1  UNL1       -0.0555
     24 C           4.3433   -2.4920    0.0000 C.3     1  UNL1       -0.0051
     25 C           3.4120   -0.8645    0.0000 C.3     1  UNL1       -0.0258
     26 C           3.4037   -1.9495    0.0000 C.3     1  UNL1        0.0590
     27 C           9.5823    2.4920    0.0000 C.3     1  UNL1       -0.0362
     28 H           7.8022   -1.3131    0.0000 H       1  UNL1        0.0335
     29 H           5.4640    0.0368    0.0000 H       1  UNL1        0.0339
     30 H           6.5259    1.4162    0.0000 H       1  UNL1        0.0626
     31 H           6.1968    1.2262    0.0000 H       1  UNL1        0.0622
     32 H           8.6240   -1.2655    0.0000 H       1  UNL1        0.0294
     33 H           9.4124   -1.0078    0.0000 H       1  UNL1        0.0294
     34 H           9.9195   -0.3086    0.0000 H       1  UNL1        0.0295
     35 H           9.9195    0.5209    0.0000 H       1  UNL1        0.0295
     36 H           7.2969   -2.5157    0.0000 H       1  UNL1        0.0311
     37 H           7.6880   -1.8198    0.0000 H       1  UNL1        0.0311
     38 H           8.5488    1.6062    0.0000 H       1  UNL1        0.0238
     39 H           7.9288    2.2262    0.0000 H       1  UNL1        0.0238
     40 H           7.3088    1.6062    0.0000 H       1  UNL1        0.0238
     41 H          10.1873    1.8608    0.0000 H       1  UNL1        0.0619
     42 H           4.7681    0.1301    0.0000 H       1  UNL1        0.0274
     43 H           3.9700    0.1455    0.0000 H       1  UNL1        0.0274
     44 H           6.1832   -3.0831    0.0000 H       1  UNL1        0.0572
     45 H           8.4658   -1.7038    0.0000 H       1  UNL1        0.2102
     46 H           5.9145    0.0945    0.0000 H       1  UNL1        0.0238
     47 H           5.2993    0.7193    0.0000 H       1  UNL1        0.0238
     48 H           4.6745    0.1041    0.0000 H       1  UNL1        0.0238
     49 H           3.9460   -2.9680    0.0000 H       1  UNL1        0.0335
     50 H           4.7443   -2.9649    0.0000 H       1  UNL1        0.0335
     51 H           8.9833    2.3225    0.0000 H       1  UNL1        0.2103
     52 H           3.2075   -0.2792    0.0000 H       1  UNL1        0.0290
     53 H           2.8004   -0.9659    0.0000 H       1  UNL1        0.0290
     54 H           6.5259    2.4162    0.0000 H       1  UNL1        0.2099
     55 H           3.4025   -2.5695    0.0000 H       1  UNL1        0.0596
     56 H           5.3307    1.7262    0.0000 H       1  UNL1        0.2099
     57 H          10.1990    2.5557    0.0000 H       1  UNL1        0.0255
     58 H           9.5185    3.1087    0.0000 H       1  UNL1        0.0255
     59 H           8.9656    2.4282    0.0000 H       1  UNL1        0.0255
     60 H          11.1001    1.4525    0.0000 H       1  UNL1        0.2099
     61 H           2.0000   -2.1341    0.0000 H       1  UNL1        0.2098
@<TRIPOS>BOND
     1     8     1    1
     2     1    45    1
     3    11     2    1
     4     2    51    1
     5    12     3    1
     6     3    54    1
     7    13     4    1
     8     4    56    1
     9     5    20    1
    10     5    60    1
    11    26     6    1
    12     6    61    1
    13     7     8    1
    14     7    11    1
    15     7    12    1
    16     7    18    1
    17     8     9    1
    18     8    15    1
    19     9    10    1
    20     9    17    1
    21     9    28    1
    22    10    13    1
    23    10    14    1
    24    10    29    1
    25    11    16    1
    26    11    20    1
    27    12    13    1
    28    12    30    1
    29    13    31    1
    30    14    19    1
    31    14    21    1
    32    14    23    1
    33    15    16    1
    34    15    32    1
    35    15    33    1
    36    16    34    1
    37    16    35    1
    38    17    22    1
    39    17    36    1
    40    17    37    1
    41    18    38    1
    42    18    39    1
    43    18    40    1
    44    19    22    2
    45    19    24    1
    46    20    27    1
    47    20    41    1
    48    21    25    1
    49    21    42    1
    50    21    43    1
    51    22    44    1
    52    23    46    1
    53    23    47    1
    54    23    48    1
    55    24    26    1
    56    24    49    1
    57    24    50    1
    58    25    26    1
    59    25    52    1
    60    25    53    1
    61    26    55    1
    62    27    57    1
    63    27    58    1
    64    27    59    1
