@<TRIPOS>MOLECULE
IMPHY017204
 28 28 0 0 0
SMALL
GASTEIGER

@<TRIPOS>ATOM
      1 O           3.7320    0.2500    0.0000 O.3     1  UNL1       -0.4570
      2 O           2.0000    0.2500    0.0000 O.2     1  UNL1       -0.2450
      3 C           4.5981    2.7500    0.0000 C.2     1  UNL1       -0.0765
      4 C           3.7320    1.2500    0.0000 C.3     1  UNL1        0.1113
      5 C           4.5981    1.7500    0.0000 C.2     1  UNL1       -0.0483
      6 C           2.8660   -1.2500    0.0000 C.ar    1  UNL1        0.0590
      7 C           5.4641    3.2500    0.0000 C.3     1  UNL1       -0.0439
      8 C           3.7320    3.2500    0.0000 C.3     1  UNL1       -0.0439
      9 C           2.8660   -0.2500    0.0000 C.2     1  UNL1        0.3395
     10 C           2.0000   -1.7500    0.0000 C.ar    1  UNL1       -0.0478
     11 C           3.7320   -1.7500    0.0000 C.ar    1  UNL1       -0.0478
     12 C           2.0000   -2.7500    0.0000 C.ar    1  UNL1       -0.0610
     13 C           3.7320   -2.7500    0.0000 C.ar    1  UNL1       -0.0610
     14 C           2.8660   -3.2500    0.0000 C.ar    1  UNL1       -0.0617
     15 H           3.5200    1.8326    0.0000 H       1  UNL1        0.0743
     16 H           3.1215    1.1423    0.0000 H       1  UNL1        0.0743
     17 H           5.1350    1.4400    0.0000 H       1  UNL1        0.0605
     18 H           5.7741    2.7131    0.0000 H       1  UNL1        0.0274
     19 H           6.0010    3.5600    0.0000 H       1  UNL1        0.0274
     20 H           5.1541    3.7869    0.0000 H       1  UNL1        0.0274
     21 H           4.0420    3.7869    0.0000 H       1  UNL1        0.0274
     22 H           3.1951    3.5600    0.0000 H       1  UNL1        0.0274
     23 H           3.4220    2.7131    0.0000 H       1  UNL1        0.0274
     24 H           1.4631   -1.4400    0.0000 H       1  UNL1        0.0626
     25 H           4.2690   -1.4400    0.0000 H       1  UNL1        0.0626
     26 H           1.4631   -3.0600    0.0000 H       1  UNL1        0.0618
     27 H           4.2690   -3.0600    0.0000 H       1  UNL1        0.0618
     28 H           2.8660   -3.8700    0.0000 H       1  UNL1        0.0618
@<TRIPOS>BOND
     1     1     4    1
     2     1     9    1
     3     2     9    2
     4     3     5    2
     5     3     7    1
     6     3     8    1
     7     4     5    1
     8     4    15    1
     9     4    16    1
    10     5    17    1
    11     6     9    1
    12     6    10   ar
    13     6    11   ar
    14     7    18    1
    15     7    19    1
    16     7    20    1
    17     8    21    1
    18     8    22    1
    19     8    23    1
    20    10    12   ar
    21    10    24    1
    22    11    13   ar
    23    11    25    1
    24    12    14   ar
    25    12    26    1
    26    13    14   ar
    27    13    27    1
    28    14    28    1
