@<TRIPOS>MOLECULE
IMPHY008852
 31 36 0 0 0
SMALL
GASTEIGER

@<TRIPOS>ATOM
      1 O           5.5954   -2.2515    0.0000 O.3     1  UNL1       -0.3368
      2 O           3.9301   -1.1704    0.0000 O.3     1  UNL1       -0.3343
      3 O           5.7968    1.4833    0.0000 O.2     1  UNL1       -0.2961
      4 O          12.0027    3.1277    0.0000 O.2     1  UNL1       -0.2961
      5 C           6.6628   -0.0167    0.0000 C.3     1  UNL1        0.0540
      6 C           7.5288   -0.5167    0.0000 C.3     1  UNL1        0.0090
      7 C           5.9258   -0.6838    0.0000 C.3     1  UNL1        0.0385
      8 C           8.3948   -0.0167    0.0000 C.3     1  UNL1        0.0009
      9 C           8.3948    0.9833    0.0000 C.3     1  UNL1        0.0074
     10 C           6.3309   -1.5916    0.0000 C.3     1  UNL1        0.1181
     11 C           7.3196   -1.4885    0.0000 C.3     1  UNL1        0.0301
     12 C           9.2888    1.5180    0.0000 C.3     1  UNL1        0.0012
     13 C           4.9434   -0.7905    0.0000 C.3     1  UNL1        0.0543
     14 C           7.5288    1.4833    0.0000 C.3     1  UNL1        0.0645
     15 C           9.2888   -0.5514    0.0000 C.3     1  UNL1        0.0000
     16 C          10.1949    1.0041    0.0000 C.3     1  UNL1        0.0074
     17 C           6.6628    0.9833    0.0000 C.2     1  UNL1        0.1499
     18 C           4.7396   -1.7574    0.0000 C.3     1  UNL1        0.1868
     19 C          10.1949   -0.0375    0.0000 C.3     1  UNL1        0.0004
     20 C           5.7968    0.4833    0.0000 C.3     1  UNL1        0.0074
     21 C           9.2637    2.6027    0.0000 C.3     1  UNL1        0.0078
     22 C           8.4189    2.0113    0.0000 C.3     1  UNL1        0.0000
     23 C          11.1386    1.5393    0.0000 C.3     1  UNL1        0.0645
     24 C           4.6359   -2.7521    0.0000 C.3     1  UNL1        0.0563
     25 C           4.2723   -0.0491    0.0000 C.3     1  UNL1        0.0051
     26 C          10.1949    3.1596    0.0000 C.3     1  UNL1        0.0645
     27 C          11.1386    2.6243    0.0000 C.2     1  UNL1        0.1506
     28 C           3.7227   -3.1596    0.0000 C.3     1  UNL1        0.0075
     29 C           2.9132   -2.5725    0.0000 C.3     1  UNL1        0.0299
     30 C           3.0169   -1.5779    0.0000 C.3     1  UNL1        0.1446
     31 C           2.0000   -2.9800    0.0000 C.3     1  UNL1        0.0026
@<TRIPOS>BOND
     1     1    10    1
     2     1    18    1
     3     2    18    1
     4     2    30    1
     5     3    17    2
     6     4    27    2
     7     5     6    1
     8     5     7    1
     9     5    17    1
    10     5    20    1
    11     6     8    1
    12     6    11    1
    13     7    10    1
    14     7    13    1
    15     8     9    1
    16     8    15    1
    17     9    12    1
    18     9    14    1
    19    10    11    1
    20    12    16    1
    21    12    21    1
    22    12    22    1
    23    13    18    1
    24    13    25    1
    25    14    17    1
    26    15    19    1
    27    16    19    1
    28    16    23    1
    29    18    24    1
    30    21    26    1
    31    23    27    1
    32    24    28    1
    33    26    27    1
    34    28    29    1
    35    29    30    1
    36    29    31    1
