@<TRIPOS>MOLECULE
IMPHY017717
 15 15 0 0 0
SMALL
GASTEIGER

@<TRIPOS>ATOM
      1 N           2.8090    0.2306    0.0000 N.pl3   1  UNL1       -0.2695
      2 N           2.8090   -1.7694    0.0000 N.1     1  UNL1       -0.1741
      3 C           3.3090    1.7694    0.0000 C.3     1  UNL1       -0.0351
      4 C           2.3090    1.7694    0.0000 C.3     1  UNL1       -0.0351
      5 C           3.6180    0.8184    0.0000 C.3     1  UNL1        0.0219
      6 C           2.0000    0.8184    0.0000 C.3     1  UNL1        0.0219
      7 C           2.8090   -0.7694    0.0000 C.1     1  UNL1        0.1690
      8 H           3.9155    1.8983    0.0000 H       1  UNL1        0.0281
      9 H           3.2442    2.3860    0.0000 H       1  UNL1        0.0281
     10 H           2.3738    2.3860    0.0000 H       1  UNL1        0.0281
     11 H           1.7026    1.8983    0.0000 H       1  UNL1        0.0281
     12 H           3.9280    0.2814    0.0000 H       1  UNL1        0.0471
     13 H           4.1844    1.0705    0.0000 H       1  UNL1        0.0471
     14 H           1.4336    1.0705    0.0000 H       1  UNL1        0.0471
     15 H           1.6900    0.2814    0.0000 H       1  UNL1        0.0471
@<TRIPOS>BOND
     1     1     5    1
     2     1     6    1
     3     1     7    1
     4     2     7    3
     5     3     4    1
     6     3     5    1
     7     3     8    1
     8     3     9    1
     9     4     6    1
    10     4    10    1
    11     4    11    1
    12     5    12    1
    13     5    13    1
    14     6    14    1
    15     6    15    1
