@<TRIPOS>MOLECULE
IMPHY012418
 97 102 0 0 0
SMALL
GASTEIGER

@<TRIPOS>ATOM
      1 O          10.2629   -1.2421    0.0000 O.3     1  UNL1       -0.3451
      2 O           6.0010   -1.7421    0.0000 O.2     1  UNL1       -0.4702
      3 O           6.8671   -3.2421    0.0000 O.3     1  UNL1       -0.3096
      4 O          10.2629    0.4899    0.0000 O.3     1  UNL1       -0.3394
      5 O           5.1350   -3.2421    0.0000 O.3     1  UNL1       -0.3404
      6 O           6.0010    1.2579    0.0000 O.3     1  UNL1       -0.4186
      7 O          12.2629   -1.2421    0.0000 O.3     1  UNL1       -0.3841
      8 O           7.7331    1.2579    0.0000 O.2     1  UNL1       -0.2448
      9 O          13.2629    0.4899    0.0000 O.3     1  UNL1       -0.3864
     10 O           6.8671   -5.2421    0.0000 O.3     1  UNL1       -0.3841
     11 O          12.2629    2.2220    0.0000 O.3     1  UNL1       -0.3864
     12 O           5.1350   -6.2421    0.0000 O.3     1  UNL1       -0.3864
     13 O           3.4030   -5.2421    0.0000 O.3     1  UNL1       -0.3865
     14 O          10.7629    3.0880    0.0000 O.3     1  UNL1       -0.4584
     15 O           2.5369   -3.7421    0.0000 O.3     1  UNL1       -0.3924
     16 O           4.2690    2.2579    0.0000 O.3     1  UNL1       -0.5009
     17 O           9.2629    3.9540    0.0000 O.2     1  UNL1       -0.2448
     18 O           4.2690    4.2579    0.0000 O.3     1  UNL1       -0.5032
     19 O          12.2629    3.9540    0.0000 O.3     1  UNL1       -0.5028
     20 O          13.2629    5.6861    0.0000 O.3     1  UNL1       -0.5033
     21 C           7.7331   -1.7421    0.0000 C.3     1  UNL1        0.0338
     22 C           8.6793   -2.0468    0.0000 C.3     1  UNL1       -0.0084
     23 C           7.7331   -0.7421    0.0000 C.3     1  UNL1        0.0050
     24 C           9.2629   -1.2421    0.0000 C.3     1  UNL1        0.0654
     25 C           8.6793   -0.4374    0.0000 C.3     1  UNL1       -0.0186
     26 C           6.8671   -2.2421    0.0000 C.3     1  UNL1        0.2071
     27 C           6.8671   -0.2421    0.0000 C.2     1  UNL1        0.0748
     28 C           8.9900   -2.9974    0.0000 C.3     1  UNL1       -0.0596
     29 C           6.0010   -0.7421    0.0000 C.2     1  UNL1        0.0981
     30 C          10.7629   -0.3761    0.0000 C.3     1  UNL1        0.1883
     31 C           6.0010   -3.7421    0.0000 C.3     1  UNL1        0.1918
     32 C          11.7629   -0.3761    0.0000 C.3     1  UNL1        0.1341
     33 C           6.8671    0.7579    0.0000 C.2     1  UNL1        0.3437
     34 C          12.2629    0.4899    0.0000 C.3     1  UNL1        0.1141
     35 C           6.0010   -4.7421    0.0000 C.3     1  UNL1        0.1342
     36 C          10.7629    1.3560    0.0000 C.3     1  UNL1        0.1240
     37 C          11.7629    1.3560    0.0000 C.3     1  UNL1        0.1129
     38 C           5.1350   -5.2421    0.0000 C.3     1  UNL1        0.1141
     39 C           4.2690   -3.7421    0.0000 C.3     1  UNL1        0.1130
     40 C           4.2690   -4.7421    0.0000 C.3     1  UNL1        0.1119
     41 C          10.2629    2.2220    0.0000 C.3     1  UNL1        0.1215
     42 C           3.4030   -3.2421    0.0000 C.3     1  UNL1        0.0730
     43 C           6.0010    2.2579    0.0000 C.ar    1  UNL1        0.1768
     44 C           5.1350    2.7579    0.0000 C.ar    1  UNL1        0.2015
     45 C           6.8671    2.7579    0.0000 C.ar    1  UNL1       -0.0153
     46 C          10.2629    3.9540    0.0000 C.2     1  UNL1        0.3429
     47 C           5.1350    3.7579    0.0000 C.ar    1  UNL1        0.1620
     48 C           6.8671    3.7579    0.0000 C.ar    1  UNL1       -0.0546
     49 C           6.0010    4.2579    0.0000 C.ar    1  UNL1       -0.0163
     50 C          10.7629    4.8201    0.0000 C.ar    1  UNL1        0.1039
     51 C          11.7629    4.8201    0.0000 C.ar    1  UNL1        0.1724
     52 C          10.2629    5.6861    0.0000 C.ar    1  UNL1       -0.0440
     53 C          12.2629    5.6861    0.0000 C.ar    1  UNL1        0.1591
     54 C          10.7629    6.5521    0.0000 C.ar    1  UNL1       -0.0573
     55 C          11.7629    6.5521    0.0000 C.ar    1  UNL1       -0.0165
     56 H           7.8230   -2.5873    0.0000 H       1  UNL1        0.0370
     57 H           8.2418   -2.4862    0.0000 H       1  UNL1        0.0328
     58 H           7.8230    0.1031    0.0000 H       1  UNL1        0.0358
     59 H           9.5446   -1.7944    0.0000 H       1  UNL1        0.0600
     60 H           9.2167   -0.1282    0.0000 H       1  UNL1        0.0296
     61 H           8.4283    0.1295    0.0000 H       1  UNL1        0.0296
     62 H           7.4040   -2.5521    0.0000 H       1  UNL1        0.1059
     63 H           8.4006   -3.1900    0.0000 H       1  UNL1        0.0233
     64 H           9.1826   -3.5867    0.0000 H       1  UNL1        0.0233
     65 H           9.5793   -2.8048    0.0000 H       1  UNL1        0.0233
     66 H           5.4641   -0.4321    0.0000 H       1  UNL1        0.1029
     67 H          10.1429   -0.3761    0.0000 H       1  UNL1        0.0938
     68 H           6.0010   -3.1221    0.0000 H       1  UNL1        0.0939
     69 H          12.3829   -0.3761    0.0000 H       1  UNL1        0.0671
     70 H          12.5729    1.0269    0.0000 H       1  UNL1        0.0648
     71 H           6.0010   -5.3621    0.0000 H       1  UNL1        0.0671
     72 H          10.1429    1.3560    0.0000 H       1  UNL1        0.0658
     73 H          11.4529    1.8929    0.0000 H       1  UNL1        0.0647
     74 H           4.5981   -5.5521    0.0000 H       1  UNL1        0.0648
     75 H           4.2690   -3.1221    0.0000 H       1  UNL1        0.0647
     76 H           4.2690   -5.3621    0.0000 H       1  UNL1        0.0647
     77 H           9.7880    2.6205    0.0000 H       1  UNL1        0.0725
     78 H           9.7880    1.8235    0.0000 H       1  UNL1        0.0725
     79 H          12.8829   -1.2421    0.0000 H       1  UNL1        0.2101
     80 H           3.8015   -2.7672    0.0000 H       1  UNL1        0.0584
     81 H           3.0044   -2.7672    0.0000 H       1  UNL1        0.0584
     82 H          13.5729    1.0269    0.0000 H       1  UNL1        0.2100
     83 H           6.8671   -5.8621    0.0000 H       1  UNL1        0.2101
     84 H          12.8829    2.2220    0.0000 H       1  UNL1        0.2100
     85 H           4.5981   -6.5521    0.0000 H       1  UNL1        0.2100
     86 H           3.4030   -5.8621    0.0000 H       1  UNL1        0.2100
     87 H           2.0000   -3.4321    0.0000 H       1  UNL1        0.2095
     88 H           7.4040    2.4479    0.0000 H       1  UNL1        0.0655
     89 H           7.4040    4.0679    0.0000 H       1  UNL1        0.0620
     90 H           6.0010    4.8779    0.0000 H       1  UNL1        0.0655
     91 H           3.7320    2.5679    0.0000 H       1  UNL1        0.2924
     92 H           4.2690    4.8779    0.0000 H       1  UNL1        0.2923
     93 H           9.6429    5.6861    0.0000 H       1  UNL1        0.0627
     94 H          10.4529    7.0890    0.0000 H       1  UNL1        0.0619
     95 H          12.0729    7.0890    0.0000 H       1  UNL1        0.0655
     96 H          12.8829    3.9540    0.0000 H       1  UNL1        0.2923
     97 H          13.5729    6.2230    0.0000 H       1  UNL1        0.2923
@<TRIPOS>BOND
     1    24     1    1
     2    30     1    1
     3     2    26    1
     4     2    29    1
     5    26     3    1
     6    31     3    1
     7     4    30    1
     8     4    36    1
     9     5    31    1
    10     5    39    1
    11     6    33    1
    12     6    43    1
    13    32     7    1
    14     7    79    1
    15     8    33    2
    16    34     9    1
    17     9    82    1
    18    35    10    1
    19    10    83    1
    20    37    11    1
    21    11    84    1
    22    38    12    1
    23    12    85    1
    24    40    13    1
    25    13    86    1
    26    14    41    1
    27    14    46    1
    28    15    42    1
    29    15    87    1
    30    16    44    1
    31    16    91    1
    32    17    46    2
    33    18    47    1
    34    18    92    1
    35    19    51    1
    36    19    96    1
    37    20    53    1
    38    20    97    1
    39    21    22    1
    40    21    23    1
    41    21    26    1
    42    21    56    1
    43    22    24    1
    44    22    28    1
    45    22    57    1
    46    23    25    1
    47    23    27    1
    48    23    58    1
    49    24    25    1
    50    24    59    1
    51    25    60    1
    52    25    61    1
    53    26    62    1
    54    27    29    2
    55    27    33    1
    56    28    63    1
    57    28    64    1
    58    28    65    1
    59    29    66    1
    60    30    32    1
    61    30    67    1
    62    31    35    1
    63    31    68    1
    64    32    34    1
    65    32    69    1
    66    34    37    1
    67    34    70    1
    68    35    38    1
    69    35    71    1
    70    36    37    1
    71    36    41    1
    72    36    72    1
    73    37    73    1
    74    38    40    1
    75    38    74    1
    76    39    40    1
    77    39    42    1
    78    39    75    1
    79    40    76    1
    80    41    77    1
    81    41    78    1
    82    42    80    1
    83    42    81    1
    84    43    44   ar
    85    43    45   ar
    86    44    47   ar
    87    45    48   ar
    88    45    88    1
    89    46    50    1
    90    47    49   ar
    91    48    49   ar
    92    48    89    1
    93    49    90    1
    94    50    51   ar
    95    50    52   ar
    96    51    53   ar
    97    52    54   ar
    98    52    93    1
    99    53    55   ar
   100    54    55   ar
   101    54    94    1
   102    55    95    1
