@<TRIPOS>MOLECULE
IMPHY001998
 44 47 0 0 0
SMALL
GASTEIGER

@<TRIPOS>ATOM
      1 O           6.3582    0.1005    0.0000 O.3     1  UNL1       -0.4827
      2 O           8.5022    2.1690    0.0000 O.3     1  UNL1       -0.4907
      3 O           2.8687    1.0048    0.0000 O.3     1  UNL1       -0.5064
      4 O          11.1418   -0.1752    0.0000 O.3     1  UNL1       -0.5066
      5 C           6.8550    1.6338    0.0000 C.3     1  UNL1        0.0630
      6 C           7.1640    0.6827    0.0000 C.3     1  UNL1        0.1385
      7 C           5.8609    1.6312    0.0000 C.ar    1  UNL1        0.0050
      8 C           7.5241    2.3769    0.0000 C.3     1  UNL1        0.1002
      9 C           5.5545    0.6855    0.0000 C.ar    1  UNL1        0.1320
     10 C           8.1421    0.4748    0.0000 C.ar    1  UNL1        0.0352
     11 C           8.8113    1.2180    0.0000 C.ar    1  UNL1        0.1307
     12 C           4.5453    0.4538    0.0000 C.ar    1  UNL1        0.0396
     13 C           5.1793    2.4107    0.0000 C.ar    1  UNL1       -0.0511
     14 C           8.4487   -0.5207    0.0000 C.ar    1  UNL1       -0.0481
     15 C           3.8459    1.2173    0.0000 C.ar    1  UNL1        0.1238
     16 C           4.2482   -0.5011    0.0000 C.3     1  UNL1       -0.0023
     17 C           4.1650    2.2024    0.0000 C.ar    1  UNL1       -0.0194
     18 C           9.8334    1.0171    0.0000 C.ar    1  UNL1        0.0219
     19 C           9.4659   -0.7451    0.0000 C.ar    1  UNL1       -0.0196
     20 C          10.1629    0.0290    0.0000 C.ar    1  UNL1        0.1204
     21 C           3.2727   -0.7211    0.0000 C.2     1  UNL1       -0.0807
     22 C           2.9755   -1.6759    0.0000 C.2     1  UNL1       -0.0793
     23 C           2.0000   -1.8960    0.0000 C.3     1  UNL1       -0.0440
     24 C           3.6538   -2.4107    0.0000 C.3     1  UNL1       -0.0440
     25 H           6.5082    2.4098    0.0000 H       1  UNL1        0.0423
     26 H           7.3396   -0.1489    0.0000 H       1  UNL1        0.0793
     27 H           7.7564    2.9518    0.0000 H       1  UNL1        0.0704
     28 H           6.9983    2.7055    0.0000 H       1  UNL1        0.0704
     29 H           5.3772    2.9983    0.0000 H       1  UNL1        0.0623
     30 H           8.0285   -0.9766    0.0000 H       1  UNL1        0.0624
     31 H           4.2775   -1.1204    0.0000 H       1  UNL1        0.0358
     32 H           4.8631   -0.5797    0.0000 H       1  UNL1        0.0358
     33 H           3.7515    2.6644    0.0000 H       1  UNL1        0.0654
     34 H          10.2429    1.4826    0.0000 H       1  UNL1        0.0691
     35 H           9.6552   -1.3355    0.0000 H       1  UNL1        0.0654
     36 H           2.8521   -0.2656    0.0000 H       1  UNL1        0.0575
     37 H           2.4517    1.4636    0.0000 H       1  UNL1        0.2921
     38 H          11.3357   -0.7641    0.0000 H       1  UNL1        0.2921
     39 H           1.8636   -1.2912    0.0000 H       1  UNL1        0.0274
     40 H           1.3952   -2.0324    0.0000 H       1  UNL1        0.0274
     41 H           2.1364   -2.5008    0.0000 H       1  UNL1        0.0274
     42 H           3.1982   -2.8313    0.0000 H       1  UNL1        0.0274
     43 H           4.0744   -2.8663    0.0000 H       1  UNL1        0.0274
     44 H           4.1094   -1.9902    0.0000 H       1  UNL1        0.0274
@<TRIPOS>BOND
     1     1     6    1
     2     1     9    1
     3     2     8    1
     4     2    11    1
     5     3    15    1
     6     3    37    1
     7     4    20    1
     8     4    38    1
     9     5     6    1
    10     5     7    1
    11     5     8    1
    12     5    25    1
    13     6    10    1
    14     6    26    1
    15     7     9   ar
    16     7    13   ar
    17     8    27    1
    18     8    28    1
    19     9    12   ar
    20    10    11   ar
    21    10    14   ar
    22    11    18   ar
    23    12    15   ar
    24    12    16    1
    25    13    17   ar
    26    13    29    1
    27    14    19   ar
    28    14    30    1
    29    15    17   ar
    30    16    21    1
    31    16    31    1
    32    16    32    1
    33    17    33    1
    34    18    20   ar
    35    18    34    1
    36    19    20   ar
    37    19    35    1
    38    21    22    2
    39    21    36    1
    40    22    23    1
    41    22    24    1
    42    23    39    1
    43    23    40    1
    44    23    41    1
    45    24    42    1
    46    24    43    1
    47    24    44    1
