@<TRIPOS>MOLECULE
IMPHY017182
 53 56 0 0 0
SMALL
GASTEIGER

@<TRIPOS>ATOM
      1 O           8.2814    1.8120    0.0000 O.3     1  UNL1       -0.3883
      2 C           6.5251   -0.0791    0.0000 C.3     1  UNL1       -0.0298
      3 C           6.5251    0.9209    0.0000 C.3     1  UNL1       -0.0004
      4 C           5.6591   -0.5791    0.0000 C.3     1  UNL1       -0.0343
      5 C           4.7931   -0.0791    0.0000 C.3     1  UNL1       -0.0320
      6 C           3.8831   -0.5859    0.0000 C.3     1  UNL1       -0.0225
      7 C           7.4714    1.2257    0.0000 C.3     1  UNL1        0.0689
      8 C           5.6591    1.4209    0.0000 C.3     1  UNL1       -0.0445
      9 C           4.7931    0.9209    0.0000 C.3     1  UNL1       -0.0488
     10 C           7.4714   -0.3838    0.0000 C.3     1  UNL1       -0.0468
     11 C           3.8751   -1.6275    0.0000 C.3     1  UNL1       -0.0317
     12 C           5.6752   -1.6206    0.0000 C.3     1  UNL1       -0.0494
     13 C           8.0550    0.4209    0.0000 C.3     1  UNL1       -0.0235
     14 C           4.7771   -2.1483    0.0000 C.3     1  UNL1       -0.0491
     15 C           6.5251    1.9209    0.0000 C.3     1  UNL1       -0.0567
     16 C           2.9562   -0.0218    0.0000 C.3     1  UNL1       -0.0288
     17 C           3.8908    0.4140    0.0000 C.3     1  UNL1       -0.0588
     18 C           2.9396   -2.1772    0.0000 C.3     1  UNL1       -0.0314
     19 C           7.1640    2.1772    0.0000 C.3     1  UNL1       -0.0356
     20 C           2.0084   -0.5498    0.0000 C.2     1  UNL1       -0.0874
     21 C           2.0000   -1.6348    0.0000 C.2     1  UNL1       -0.0876
     22 H           6.6151   -0.9243    0.0000 H       1  UNL1        0.0310
     23 H           6.3985   -0.9984    0.0000 H       1  UNL1        0.0306
     24 H           5.5292    0.3459    0.0000 H       1  UNL1        0.0309
     25 H           6.0576    1.8959    0.0000 H       1  UNL1        0.0272
     26 H           5.2606    1.8959    0.0000 H       1  UNL1        0.0272
     27 H           4.5810    1.5035    0.0000 H       1  UNL1        0.0268
     28 H           4.1825    0.8133    0.0000 H       1  UNL1        0.0268
     29 H           7.2203   -0.9507    0.0000 H       1  UNL1        0.0269
     30 H           8.0087   -0.6930    0.0000 H       1  UNL1        0.0269
     31 H           3.8783   -2.4775    0.0000 H       1  UNL1        0.0309
     32 H           5.8932   -2.2010    0.0000 H       1  UNL1        0.0268
     33 H           6.2843   -1.5051    0.0000 H       1  UNL1        0.0268
     34 H           8.5158    0.0062    0.0000 H       1  UNL1        0.0293
     35 H           8.5158    0.8357    0.0000 H       1  UNL1        0.0293
     36 H           4.3798   -2.6243    0.0000 H       1  UNL1        0.0268
     37 H           5.1781   -2.6212    0.0000 H       1  UNL1        0.0268
     38 H           7.1451    1.9209    0.0000 H       1  UNL1        0.0236
     39 H           6.5251    2.5409    0.0000 H       1  UNL1        0.0236
     40 H           5.9051    1.9209    0.0000 H       1  UNL1        0.0236
     41 H           3.3645    0.4448    0.0000 H       1  UNL1        0.0313
     42 H           2.5663    0.4602    0.0000 H       1  UNL1        0.0313
     43 H           4.5108    0.4093    0.0000 H       1  UNL1        0.0235
     44 H           3.8956    1.0340    0.0000 H       1  UNL1        0.0235
     45 H           3.2708    0.4188    0.0000 H       1  UNL1        0.0235
     46 H           2.5423   -2.6532    0.0000 H       1  UNL1        0.0310
     47 H           3.3406   -2.6501    0.0000 H       1  UNL1        0.0310
     48 H           7.7540    2.3678    0.0000 H       1  UNL1        0.0257
     49 H           6.9734    2.7672    0.0000 H       1  UNL1        0.0257
     50 H           6.5740    1.9867    0.0000 H       1  UNL1        0.0257
     51 H           8.8474    1.5589    0.0000 H       1  UNL1        0.2102
     52 H           1.4750   -0.2336    0.0000 H       1  UNL1        0.0569
     53 H           1.4619   -1.9427    0.0000 H       1  UNL1        0.0569
@<TRIPOS>BOND
     1     7     1    1
     2     1    51    1
     3     2     3    1
     4     2     4    1
     5     2    10    1
     6     2    22    1
     7     3     7    1
     8     3     8    1
     9     3    15    1
    10     4     5    1
    11     4    12    1
    12     4    23    1
    13     5     6    1
    14     5     9    1
    15     5    24    1
    16     6    11    1
    17     6    16    1
    18     6    17    1
    19     7    13    1
    20     7    19    1
    21     8     9    1
    22     8    25    1
    23     8    26    1
    24     9    27    1
    25     9    28    1
    26    10    13    1
    27    10    29    1
    28    10    30    1
    29    11    14    1
    30    11    18    1
    31    11    31    1
    32    12    14    1
    33    12    32    1
    34    12    33    1
    35    13    34    1
    36    13    35    1
    37    14    36    1
    38    14    37    1
    39    15    38    1
    40    15    39    1
    41    15    40    1
    42    16    20    1
    43    16    41    1
    44    16    42    1
    45    17    43    1
    46    17    44    1
    47    17    45    1
    48    18    21    1
    49    18    46    1
    50    18    47    1
    51    19    48    1
    52    19    49    1
    53    19    50    1
    54    20    21    2
    55    20    52    1
    56    21    53    1
