@<TRIPOS>MOLECULE
IMPHY008447
 54 56 0 0 0
SMALL
GASTEIGER

@<TRIPOS>ATOM
      1 O           6.0010   -2.0950    0.0000 O.3     1  UNL1       -0.3313
      2 O           4.2690   -4.0950    0.0000 O.3     1  UNL1       -0.3865
      3 O           6.0010   -5.0950    0.0000 O.3     1  UNL1       -0.3864
      4 O           7.7331   -2.0950    0.0000 O.3     1  UNL1       -0.4607
      5 O           7.7331   -4.0950    0.0000 O.3     1  UNL1       -0.3829
      6 O           4.2690   -1.0950    0.0000 O.3     1  UNL1       -0.3924
      7 O           9.4651    0.9050    0.0000 O.3     1  UNL1       -0.5066
      8 O           4.2690    4.9050    0.0000 O.3     1  UNL1       -0.4914
      9 O           2.5369    3.9050    0.0000 O.3     1  UNL1       -0.5033
     10 C           5.1350   -3.5950    0.0000 C.3     1  UNL1        0.1120
     11 C           6.0010   -4.0950    0.0000 C.3     1  UNL1        0.1152
     12 C           5.1350   -2.5950    0.0000 C.3     1  UNL1        0.1140
     13 C           6.8671   -3.5950    0.0000 C.3     1  UNL1        0.1454
     14 C           6.8671   -2.5950    0.0000 C.3     1  UNL1        0.2308
     15 C           4.2690   -2.0950    0.0000 C.3     1  UNL1        0.0731
     16 C           7.7331   -1.0950    0.0000 C.ar    1  UNL1        0.1280
     17 C           6.8671   -0.5950    0.0000 C.ar    1  UNL1       -0.0124
     18 C           8.5991   -0.5950    0.0000 C.ar    1  UNL1        0.0217
     19 C           6.8671    0.4050    0.0000 C.ar    1  UNL1       -0.0181
     20 C           8.5991    0.4050    0.0000 C.ar    1  UNL1        0.1209
     21 C           7.7331    0.9050    0.0000 C.ar    1  UNL1       -0.0128
     22 C           6.0010    0.9050    0.0000 C.2     1  UNL1       -0.0538
     23 C           6.0010    1.9050    0.0000 C.2     1  UNL1       -0.0539
     24 C           5.1350    2.4050    0.0000 C.ar    1  UNL1       -0.0213
     25 C           5.1350    3.4050    0.0000 C.ar    1  UNL1       -0.0092
     26 C           4.2690    1.9050    0.0000 C.ar    1  UNL1       -0.0509
     27 C           4.2690    3.9050    0.0000 C.ar    1  UNL1        0.1618
     28 C           3.4030    2.4050    0.0000 C.ar    1  UNL1       -0.0160
     29 C           3.4030    3.4050    0.0000 C.ar    1  UNL1        0.1585
     30 C           5.1350    5.4050    0.0000 C.3     1  UNL1        0.0790
     31 H           5.1350   -4.2150    0.0000 H       1  UNL1        0.0647
     32 H           5.4641   -4.4050    0.0000 H       1  UNL1        0.0648
     33 H           5.1350   -1.9750    0.0000 H       1  UNL1        0.0647
     34 H           6.8671   -4.2150    0.0000 H       1  UNL1        0.0683
     35 H           7.4040   -2.9050    0.0000 H       1  UNL1        0.1084
     36 H           3.6584   -1.9873    0.0000 H       1  UNL1        0.0584
     37 H           4.0569   -2.6776    0.0000 H       1  UNL1        0.0584
     38 H           3.7320   -3.7850    0.0000 H       1  UNL1        0.2100
     39 H           5.4641   -5.4050    0.0000 H       1  UNL1        0.2100
     40 H           8.2700   -3.7850    0.0000 H       1  UNL1        0.2102
     41 H           3.7320   -0.7850    0.0000 H       1  UNL1        0.2095
     42 H           6.3301   -0.9050    0.0000 H       1  UNL1        0.0660
     43 H           9.1360   -0.9050    0.0000 H       1  UNL1        0.0691
     44 H           7.7331    1.5250    0.0000 H       1  UNL1        0.0660
     45 H           5.4641    0.5950    0.0000 H       1  UNL1        0.0624
     46 H           6.5380    2.2150    0.0000 H       1  UNL1        0.0624
     47 H           9.4651    1.5250    0.0000 H       1  UNL1        0.2921
     48 H           5.6720    3.7150    0.0000 H       1  UNL1        0.0661
     49 H           4.2690    1.2850    0.0000 H       1  UNL1        0.0625
     50 H           2.8660    2.0950    0.0000 H       1  UNL1        0.0655
     51 H           2.0000    3.5950    0.0000 H       1  UNL1        0.2923
     52 H           5.4450    4.8681    0.0000 H       1  UNL1        0.0660
     53 H           5.6720    5.7150    0.0000 H       1  UNL1        0.0660
     54 H           4.8250    5.9419    0.0000 H       1  UNL1        0.0660
@<TRIPOS>BOND
     1     1    12    1
     2     1    14    1
     3    10     2    1
     4     2    38    1
     5    11     3    1
     6     3    39    1
     7    14     4    1
     8     4    16    1
     9    13     5    1
    10     5    40    1
    11     6    15    1
    12     6    41    1
    13     7    20    1
    14     7    47    1
    15     8    27    1
    16     8    30    1
    17     9    29    1
    18     9    51    1
    19    10    11    1
    20    10    12    1
    21    10    31    1
    22    11    13    1
    23    11    32    1
    24    12    15    1
    25    12    33    1
    26    13    14    1
    27    13    34    1
    28    14    35    1
    29    15    36    1
    30    15    37    1
    31    16    17   ar
    32    16    18   ar
    33    17    19   ar
    34    17    42    1
    35    18    20   ar
    36    18    43    1
    37    19    21   ar
    38    19    22    1
    39    20    21   ar
    40    21    44    1
    41    22    23    2
    42    22    45    1
    43    23    24    1
    44    23    46    1
    45    24    25   ar
    46    24    26   ar
    47    25    27   ar
    48    25    48    1
    49    26    28   ar
    50    26    49    1
    51    27    29   ar
    52    28    29   ar
    53    28    50    1
    54    30    52    1
    55    30    53    1
    56    30    54    1
