@<TRIPOS>MOLECULE
IMPHY002034
 82 86 0 0 0
SMALL
GASTEIGER

@<TRIPOS>ATOM
      1 O          10.1808   -1.0218    0.0000 O.3     1  UNL1       -0.3915
      2 O          11.1246    2.6467    0.0000 O.3     1  UNL1       -0.3912
      3 O           6.6507   -2.7298    0.0000 O.3     1  UNL1       -0.4800
      4 O           8.0167   -2.3637    0.0000 O.2     1  UNL1       -0.2500
      5 C           7.5167   -0.4977    0.0000 C.3     1  UNL1       -0.0066
      6 C           7.5167    0.5023    0.0000 C.3     1  UNL1       -0.0251
      7 C           8.4106    1.0370    0.0000 C.3     1  UNL1       -0.0226
      8 C           6.6507   -0.9977    0.0000 C.3     1  UNL1        0.0944
      9 C           9.3167    0.5231    0.0000 C.3     1  UNL1       -0.0018
     10 C           8.4106   -1.0324    0.0000 C.3     1  UNL1       -0.0196
     11 C           9.3167   -0.5185    0.0000 C.3     1  UNL1        0.0597
     12 C          10.2605    1.0584    0.0000 C.3     1  UNL1       -0.0033
     13 C           5.7847   -0.4977    0.0000 C.2     1  UNL1       -0.0526
     14 C           4.8746   -1.0045    0.0000 C.3     1  UNL1       -0.0130
     15 C           4.8666   -2.0461    0.0000 C.3     1  UNL1       -0.0255
     16 C           6.6507    1.0023    0.0000 C.3     1  UNL1       -0.0306
     17 C           8.3856    2.1217    0.0000 C.3     1  UNL1       -0.0446
     18 C           6.6667   -2.0392    0.0000 C.3     1  UNL1       -0.0324
     19 C           5.7687   -2.5670    0.0000 C.3     1  UNL1       -0.0458
     20 C           7.6904   -1.4825    0.0000 C.3     1  UNL1       -0.0579
     21 C          10.2605    2.1434    0.0000 C.3     1  UNL1        0.0607
     22 C           7.5408    1.5303    0.0000 C.3     1  UNL1       -0.0589
     23 C           5.7847    0.5023    0.0000 C.2     1  UNL1       -0.0831
     24 C           9.3167    2.6786    0.0000 C.3     1  UNL1       -0.0258
     25 C           3.9478   -0.4405    0.0000 C.3     1  UNL1       -0.0408
     26 C           3.9312   -2.5959    0.0000 C.3     1  UNL1       -0.0466
     27 C           7.1507   -1.8637    0.0000 C.2     1  UNL1        0.3156
     28 C           2.9999   -0.9684    0.0000 C.3     1  UNL1       -0.0343
     29 C           2.9916   -2.0534    0.0000 C.3     1  UNL1       -0.0473
     30 C          11.2605    1.0545    0.0000 C.3     1  UNL1       -0.0571
     31 C          10.7572    0.1904    0.0000 C.3     1  UNL1       -0.0571
     32 C           4.8589   -3.0461    0.0000 C.3     1  UNL1       -0.0590
     33 C           2.0000   -0.9568    0.0000 C.3     1  UNL1       -0.0598
     34 C           2.5100   -0.0967    0.0000 C.3     1  UNL1       -0.0598
     35 H           8.2561    0.0830    0.0000 H       1  UNL1        0.0315
     36 H          10.0512    0.0953    0.0000 H       1  UNL1        0.0337
     37 H           8.0060   -1.5021    0.0000 H       1  UNL1        0.0296
     38 H           8.8043   -1.5114    0.0000 H       1  UNL1        0.0296
     39 H           9.8542   -0.2095    0.0000 H       1  UNL1        0.0596
     40 H           4.8910   -0.1547    0.0000 H       1  UNL1        0.0351
     41 H           7.0492    1.4772    0.0000 H       1  UNL1        0.0310
     42 H           6.2522    1.4772    0.0000 H       1  UNL1        0.0310
     43 H           8.1631    2.7004    0.0000 H       1  UNL1        0.0272
     44 H           7.7773    2.0015    0.0000 H       1  UNL1        0.0272
     45 H           6.8848   -2.6196    0.0000 H       1  UNL1        0.0279
     46 H           7.2759   -1.9237    0.0000 H       1  UNL1        0.0279
     47 H           5.3714   -3.0429    0.0000 H       1  UNL1        0.0271
     48 H           6.1697   -3.0398    0.0000 H       1  UNL1        0.0271
     49 H           7.0799   -1.5902    0.0000 H       1  UNL1        0.0236
     50 H           7.7982   -2.0931    0.0000 H       1  UNL1        0.0236
     51 H           8.3010   -1.3748    0.0000 H       1  UNL1        0.0236
     52 H          10.7980    1.8344    0.0000 H       1  UNL1        0.0599
     53 H           7.8466    2.0696    0.0000 H       1  UNL1        0.0235
     54 H           7.0015    1.8361    0.0000 H       1  UNL1        0.0235
     55 H           7.2349    0.9910    0.0000 H       1  UNL1        0.0235
     56 H           5.2477    0.8123    0.0000 H       1  UNL1        0.0572
     57 H           9.7103    3.1576    0.0000 H       1  UNL1        0.0290
     58 H           8.9121    3.1484    0.0000 H       1  UNL1        0.0290
     59 H           4.3560    0.0262    0.0000 H       1  UNL1        0.0276
     60 H           3.5579    0.0416    0.0000 H       1  UNL1        0.0276
     61 H           3.5339   -3.0718    0.0000 H       1  UNL1        0.0271
     62 H           4.3322   -3.0688    0.0000 H       1  UNL1        0.0271
     63 H           2.3816   -1.9426    0.0000 H       1  UNL1        0.0271
     64 H           2.7780   -2.6354    0.0000 H       1  UNL1        0.0271
     65 H          10.2190   -0.1175    0.0000 H       1  UNL1        0.0236
     66 H          11.0651   -0.3477    0.0000 H       1  UNL1        0.0236
     67 H          11.2953    0.4983    0.0000 H       1  UNL1        0.0236
     68 H          11.2581    0.4345    0.0000 H       1  UNL1        0.0236
     69 H          11.8805    1.0521    0.0000 H       1  UNL1        0.0236
     70 H          11.2629    1.6745    0.0000 H       1  UNL1        0.0236
     71 H           4.2389   -3.0413    0.0000 H       1  UNL1        0.0235
     72 H           4.8541   -3.6661    0.0000 H       1  UNL1        0.0235
     73 H           5.4789   -3.0509    0.0000 H       1  UNL1        0.0235
     74 H          10.1784   -1.6418    0.0000 H       1  UNL1        0.2098
     75 H           3.0505    0.2071    0.0000 H       1  UNL1        0.0235
     76 H           2.2062    0.4438    0.0000 H       1  UNL1        0.0235
     77 H           2.0072   -0.3369    0.0000 H       1  UNL1        0.0235
     78 H           1.3800   -0.9497    0.0000 H       1  UNL1        0.0235
     79 H           1.9928   -1.5768    0.0000 H       1  UNL1        0.0235
     80 H           1.9695   -0.4004    0.0000 H       1  UNL1        0.0235
     81 H          11.1222    3.2667    0.0000 H       1  UNL1        0.2098
     82 H           6.9607   -3.2667    0.0000 H       1  UNL1        0.2951
@<TRIPOS>BOND
     1    11     1    1
     2     1    74    1
     3    21     2    1
     4     2    81    1
     5     3    27    1
     6     3    82    1
     7     4    27    2
     8     5     6    1
     9     5     8    1
    10     5    10    1
    11     5    20    1
    12     6     7    1
    13     6    16    1
    14     6    35    1
    15     7     9    1
    16     7    17    1
    17     7    22    1
    18     8    13    1
    19     8    18    1
    20     8    27    1
    21     9    11    1
    22     9    12    1
    23     9    36    1
    24    10    11    1
    25    10    37    1
    26    10    38    1
    27    11    39    1
    28    12    21    1
    29    12    30    1
    30    12    31    1
    31    13    14    1
    32    13    23    2
    33    14    15    1
    34    14    25    1
    35    14    40    1
    36    15    19    1
    37    15    26    1
    38    15    32    1
    39    16    23    1
    40    16    41    1
    41    16    42    1
    42    17    24    1
    43    17    43    1
    44    17    44    1
    45    18    19    1
    46    18    45    1
    47    18    46    1
    48    19    47    1
    49    19    48    1
    50    20    49    1
    51    20    50    1
    52    20    51    1
    53    21    24    1
    54    21    52    1
    55    22    53    1
    56    22    54    1
    57    22    55    1
    58    23    56    1
    59    24    57    1
    60    24    58    1
    61    25    28    1
    62    25    59    1
    63    25    60    1
    64    26    29    1
    65    26    61    1
    66    26    62    1
    67    28    29    1
    68    28    33    1
    69    28    34    1
    70    29    63    1
    71    29    64    1
    72    30    68    1
    73    30    69    1
    74    30    70    1
    75    31    65    1
    76    31    66    1
    77    31    67    1
    78    32    71    1
    79    32    72    1
    80    32    73    1
    81    33    77    1
    82    33    78    1
    83    33    79    1
    84    34    75    1
    85    34    76    1
    86    34    80    1
