@<TRIPOS>MOLECULE
IMPHY015822
 31 30 0 0 0
SMALL
GASTEIGER

@<TRIPOS>ATOM
      1 O           8.9282    0.7500    0.0000 O.3     1  UNL1       -0.4677
      2 O           8.0622   -0.7500    0.0000 O.2     1  UNL1       -0.2505
      3 C           6.3301    0.2500    0.0000 C.2     1  UNL1       -0.0657
      4 C           4.5981    0.2500    0.0000 C.3     1  UNL1       -0.0161
      5 C           5.4641    0.7500    0.0000 C.2     1  UNL1       -0.0808
      6 C           7.1962    0.7500    0.0000 C.3     1  UNL1        0.0658
      7 C           3.7320    0.7500    0.0000 C.2     1  UNL1       -0.0815
      8 C           2.8660    0.2500    0.0000 C.2     1  UNL1       -0.0793
      9 C           6.3301   -0.7500    0.0000 C.3     1  UNL1       -0.0433
     10 C           8.0622    0.2500    0.0000 C.2     1  UNL1        0.3109
     11 C           2.0000    0.7500    0.0000 C.3     1  UNL1       -0.0440
     12 C           2.8660   -0.7500    0.0000 C.3     1  UNL1       -0.0440
     13 C           9.7942    0.2500    0.0000 C.3     1  UNL1        0.0817
     14 H           4.1996   -0.2249    0.0000 H       1  UNL1        0.0350
     15 H           4.9966   -0.2249    0.0000 H       1  UNL1        0.0350
     16 H           5.4641    1.3700    0.0000 H       1  UNL1        0.0575
     17 H           7.5947    1.2250    0.0000 H       1  UNL1        0.0423
     18 H           6.7976    1.2250    0.0000 H       1  UNL1        0.0423
     19 H           3.7320    1.3700    0.0000 H       1  UNL1        0.0575
     20 H           5.7101   -0.7500    0.0000 H       1  UNL1        0.0274
     21 H           6.3301   -1.3700    0.0000 H       1  UNL1        0.0274
     22 H           6.9501   -0.7500    0.0000 H       1  UNL1        0.0274
     23 H           2.3100    1.2869    0.0000 H       1  UNL1        0.0274
     24 H           1.4631    1.0600    0.0000 H       1  UNL1        0.0274
     25 H           1.6900    0.2131    0.0000 H       1  UNL1        0.0274
     26 H           2.2460   -0.7500    0.0000 H       1  UNL1        0.0274
     27 H           2.8660   -1.3700    0.0000 H       1  UNL1        0.0274
     28 H           3.4860   -0.7500    0.0000 H       1  UNL1        0.0274
     29 H           9.4842   -0.2869    0.0000 H       1  UNL1        0.0661
     30 H          10.3312   -0.0600    0.0000 H       1  UNL1        0.0661
     31 H          10.1042    0.7869    0.0000 H       1  UNL1        0.0661
@<TRIPOS>BOND
     1     1    10    1
     2     1    13    1
     3     2    10    2
     4     3     5    2
     5     3     6    1
     6     3     9    1
     7     4     5    1
     8     4     7    1
     9     4    14    1
    10     4    15    1
    11     5    16    1
    12     6    10    1
    13     6    17    1
    14     6    18    1
    15     7     8    2
    16     7    19    1
    17     8    11    1
    18     8    12    1
    19     9    20    1
    20     9    21    1
    21     9    22    1
    22    11    23    1
    23    11    24    1
    24    11    25    1
    25    12    26    1
    26    12    27    1
    27    12    28    1
    28    13    29    1
    29    13    30    1
    30    13    31    1
