@<TRIPOS>MOLECULE
IMPHY002733
 108 107 0 0 0
SMALL
GASTEIGER

@<TRIPOS>ATOM
      1 O          15.8564    0.4400    0.0000 O.3     1  UNL1       -0.4605
      2 O          16.7224   -1.0600    0.0000 O.2     1  UNL1       -0.2508
      3 C          24.5167    0.4400    0.0000 C.3     1  UNL1       -0.0531
      4 C          23.6506   -0.0600    0.0000 C.3     1  UNL1       -0.0531
      5 C          25.3827   -0.0600    0.0000 C.3     1  UNL1       -0.0531
      6 C          22.7846    0.4400    0.0000 C.3     1  UNL1       -0.0531
      7 C          26.2487    0.4400    0.0000 C.3     1  UNL1       -0.0531
      8 C          21.9186   -0.0600    0.0000 C.3     1  UNL1       -0.0531
      9 C          27.1147   -0.0600    0.0000 C.3     1  UNL1       -0.0531
     10 C          21.0526    0.4400    0.0000 C.3     1  UNL1       -0.0531
     11 C          27.9808    0.4400    0.0000 C.3     1  UNL1       -0.0531
     12 C          20.1865   -0.0600    0.0000 C.3     1  UNL1       -0.0530
     13 C          28.8468   -0.0600    0.0000 C.3     1  UNL1       -0.0531
     14 C          19.3205    0.4400    0.0000 C.3     1  UNL1       -0.0526
     15 C          29.7128    0.4400    0.0000 C.3     1  UNL1       -0.0533
     16 C          18.4545   -0.0600    0.0000 C.3     1  UNL1       -0.0430
     17 C          30.5788   -0.0600    0.0000 C.3     1  UNL1       -0.0559
     18 C          17.5885    0.4400    0.0000 C.3     1  UNL1        0.0449
     19 C          31.4449    0.4400    0.0000 C.3     1  UNL1       -0.0653
     20 C          16.7224   -0.0600    0.0000 C.2     1  UNL1        0.3074
     21 C          14.9904   -0.0600    0.0000 C.3     1  UNL1        0.1109
     22 C          12.3923    0.4400    0.0000 C.3     1  UNL1       -0.0285
     23 C          11.5263   -0.0600    0.0000 C.3     1  UNL1       -0.0308
     24 C           8.9282    0.4400    0.0000 C.3     1  UNL1       -0.0286
     25 C          13.2583   -0.0600    0.0000 C.2     1  UNL1       -0.0731
     26 C           9.7942   -0.0600    0.0000 C.2     1  UNL1       -0.0762
     27 C          14.1244    0.4400    0.0000 C.2     1  UNL1       -0.0480
     28 C           8.0622   -0.0600    0.0000 C.3     1  UNL1       -0.0308
     29 C          10.6603    0.4400    0.0000 C.2     1  UNL1       -0.0847
     30 C           6.3301   -0.0600    0.0000 C.2     1  UNL1       -0.0762
     31 C           7.1962    0.4400    0.0000 C.2     1  UNL1       -0.0847
     32 C           5.4641    0.4400    0.0000 C.3     1  UNL1       -0.0286
     33 C          13.2583   -1.0600    0.0000 C.3     1  UNL1       -0.0437
     34 C           4.5981   -0.0600    0.0000 C.3     1  UNL1       -0.0308
     35 C           9.7942   -1.0600    0.0000 C.3     1  UNL1       -0.0438
     36 C           6.3301   -1.0600    0.0000 C.3     1  UNL1       -0.0438
     37 C           3.7320    0.4400    0.0000 C.2     1  UNL1       -0.0850
     38 C           2.8660   -0.0600    0.0000 C.2     1  UNL1       -0.0796
     39 C           2.0000    0.4400    0.0000 C.3     1  UNL1       -0.0440
     40 C           2.8660   -1.0600    0.0000 C.3     1  UNL1       -0.0440
     41 H          24.9152    0.9149    0.0000 H       1  UNL1        0.0265
     42 H          24.1181    0.9149    0.0000 H       1  UNL1        0.0265
     43 H          23.2521   -0.5349    0.0000 H       1  UNL1        0.0265
     44 H          24.0492   -0.5349    0.0000 H       1  UNL1        0.0265
     45 H          24.9842   -0.5349    0.0000 H       1  UNL1        0.0265
     46 H          25.7812   -0.5349    0.0000 H       1  UNL1        0.0265
     47 H          23.1831    0.9149    0.0000 H       1  UNL1        0.0265
     48 H          22.3861    0.9149    0.0000 H       1  UNL1        0.0265
     49 H          26.6472    0.9149    0.0000 H       1  UNL1        0.0265
     50 H          25.8502    0.9149    0.0000 H       1  UNL1        0.0265
     51 H          21.5201   -0.5349    0.0000 H       1  UNL1        0.0265
     52 H          22.3171   -0.5349    0.0000 H       1  UNL1        0.0265
     53 H          26.7162   -0.5349    0.0000 H       1  UNL1        0.0265
     54 H          27.5133   -0.5349    0.0000 H       1  UNL1        0.0265
     55 H          21.4511    0.9149    0.0000 H       1  UNL1        0.0265
     56 H          20.6540    0.9149    0.0000 H       1  UNL1        0.0265
     57 H          28.3793    0.9149    0.0000 H       1  UNL1        0.0265
     58 H          27.5822    0.9149    0.0000 H       1  UNL1        0.0265
     59 H          19.7880   -0.5349    0.0000 H       1  UNL1        0.0265
     60 H          20.5851   -0.5349    0.0000 H       1  UNL1        0.0265
     61 H          28.4483   -0.5349    0.0000 H       1  UNL1        0.0265
     62 H          29.2453   -0.5349    0.0000 H       1  UNL1        0.0265
     63 H          19.7190    0.9149    0.0000 H       1  UNL1        0.0265
     64 H          18.9220    0.9149    0.0000 H       1  UNL1        0.0265
     65 H          30.1113    0.9149    0.0000 H       1  UNL1        0.0265
     66 H          29.3143    0.9149    0.0000 H       1  UNL1        0.0265
     67 H          18.0560   -0.5349    0.0000 H       1  UNL1        0.0270
     68 H          18.8530   -0.5349    0.0000 H       1  UNL1        0.0270
     69 H          30.1803   -0.5349    0.0000 H       1  UNL1        0.0263
     70 H          30.9774   -0.5349    0.0000 H       1  UNL1        0.0263
     71 H          17.9870    0.9149    0.0000 H       1  UNL1        0.0377
     72 H          17.1899    0.9149    0.0000 H       1  UNL1        0.0377
     73 H          31.7549   -0.0969    0.0000 H       1  UNL1        0.0230
     74 H          31.9818    0.7500    0.0000 H       1  UNL1        0.0230
     75 H          31.1349    0.9769    0.0000 H       1  UNL1        0.0230
     76 H          14.5919   -0.5349    0.0000 H       1  UNL1        0.0743
     77 H          15.3889   -0.5349    0.0000 H       1  UNL1        0.0743
     78 H          12.7908    0.9149    0.0000 H       1  UNL1        0.0313
     79 H          11.9938    0.9149    0.0000 H       1  UNL1        0.0313
     80 H           9.3267    0.9149    0.0000 H       1  UNL1        0.0313
     81 H           8.5297    0.9149    0.0000 H       1  UNL1        0.0313
     82 H          11.1278   -0.5349    0.0000 H       1  UNL1        0.0310
     83 H          11.9248   -0.5349    0.0000 H       1  UNL1        0.0310
     84 H           7.6636   -0.5349    0.0000 H       1  UNL1        0.0310
     85 H           8.4607   -0.5349    0.0000 H       1  UNL1        0.0310
     86 H          14.1244    1.0600    0.0000 H       1  UNL1        0.0605
     87 H          10.6603    1.0600    0.0000 H       1  UNL1        0.0572
     88 H           7.1962    1.0600    0.0000 H       1  UNL1        0.0572
     89 H           5.8626    0.9149    0.0000 H       1  UNL1        0.0313
     90 H           5.0656    0.9149    0.0000 H       1  UNL1        0.0313
     91 H          12.6383   -1.0600    0.0000 H       1  UNL1        0.0274
     92 H          13.2583   -1.6800    0.0000 H       1  UNL1        0.0274
     93 H          13.8783   -1.0600    0.0000 H       1  UNL1        0.0274
     94 H           4.1996   -0.5349    0.0000 H       1  UNL1        0.0310
     95 H           4.9966   -0.5349    0.0000 H       1  UNL1        0.0310
     96 H           9.1742   -1.0600    0.0000 H       1  UNL1        0.0274
     97 H           9.7942   -1.6800    0.0000 H       1  UNL1        0.0274
     98 H          10.4142   -1.0600    0.0000 H       1  UNL1        0.0274
     99 H           5.7101   -1.0600    0.0000 H       1  UNL1        0.0274
    100 H           6.3301   -1.6800    0.0000 H       1  UNL1        0.0274
    101 H           6.9501   -1.0600    0.0000 H       1  UNL1        0.0274
    102 H           3.7320    1.0600    0.0000 H       1  UNL1        0.0572
    103 H           2.3100    0.9769    0.0000 H       1  UNL1        0.0274
    104 H           2.2460   -1.0600    0.0000 H       1  UNL1        0.0274
    105 H           2.8660   -1.6800    0.0000 H       1  UNL1        0.0274
    106 H           3.4860   -1.0600    0.0000 H       1  UNL1        0.0274
    107 H           1.4631    0.7500    0.0000 H       1  UNL1        0.0274
    108 H           1.6900   -0.0969    0.0000 H       1  UNL1        0.0274
@<TRIPOS>BOND
     1     1    20    1
     2     1    21    1
     3     2    20    2
     4     3     4    1
     5     3     5    1
     6     3    41    1
     7     3    42    1
     8     4     6    1
     9     4    43    1
    10     4    44    1
    11     5     7    1
    12     5    45    1
    13     5    46    1
    14     6     8    1
    15     6    47    1
    16     6    48    1
    17     7     9    1
    18     7    49    1
    19     7    50    1
    20     8    10    1
    21     8    51    1
    22     8    52    1
    23     9    11    1
    24     9    53    1
    25     9    54    1
    26    10    12    1
    27    10    55    1
    28    10    56    1
    29    11    13    1
    30    11    57    1
    31    11    58    1
    32    12    14    1
    33    12    59    1
    34    12    60    1
    35    13    15    1
    36    13    61    1
    37    13    62    1
    38    14    16    1
    39    14    63    1
    40    14    64    1
    41    15    17    1
    42    15    65    1
    43    15    66    1
    44    16    18    1
    45    16    67    1
    46    16    68    1
    47    17    19    1
    48    17    69    1
    49    17    70    1
    50    18    20    1
    51    18    71    1
    52    18    72    1
    53    19    73    1
    54    19    74    1
    55    19    75    1
    56    21    27    1
    57    21    76    1
    58    21    77    1
    59    22    23    1
    60    22    25    1
    61    22    78    1
    62    22    79    1
    63    23    29    1
    64    23    82    1
    65    23    83    1
    66    24    26    1
    67    24    28    1
    68    24    80    1
    69    24    81    1
    70    25    27    2
    71    25    33    1
    72    26    29    2
    73    26    35    1
    74    27    86    1
    75    28    31    1
    76    28    84    1
    77    28    85    1
    78    29    87    1
    79    30    31    2
    80    30    32    1
    81    30    36    1
    82    31    88    1
    83    32    34    1
    84    32    89    1
    85    32    90    1
    86    33    91    1
    87    33    92    1
    88    33    93    1
    89    34    37    1
    90    34    94    1
    91    34    95    1
    92    35    96    1
    93    35    97    1
    94    35    98    1
    95    36    99    1
    96    36   100    1
    97    36   101    1
    98    37    38    2
    99    37   102    1
   100    38    39    1
   101    38    40    1
   102    39   103    1
   103    39   107    1
   104    39   108    1
   105    40   104    1
   106    40   105    1
   107    40   106    1
