@<TRIPOS>MOLECULE
IMPHY014465
 114 113 0 0 0
SMALL
GASTEIGER

@<TRIPOS>ATOM
      1 O           9.7942    0.7500    0.0000 O.3     1  UNL1       -0.4646
      2 O           8.9282   -0.7500    0.0000 O.2     1  UNL1       -0.2508
      3 C          22.7846    0.2500    0.0000 C.3     1  UNL1       -0.0531
      4 C          21.9186    0.7500    0.0000 C.3     1  UNL1       -0.0531
      5 C          23.6506    0.7500    0.0000 C.3     1  UNL1       -0.0531
      6 C          21.0526    0.2500    0.0000 C.3     1  UNL1       -0.0531
      7 C          24.5167    0.2500    0.0000 C.3     1  UNL1       -0.0531
      8 C          20.1865    0.7500    0.0000 C.3     1  UNL1       -0.0531
      9 C          25.3827    0.7500    0.0000 C.3     1  UNL1       -0.0531
     10 C          19.3205    0.2500    0.0000 C.3     1  UNL1       -0.0531
     11 C          26.2487    0.2500    0.0000 C.3     1  UNL1       -0.0531
     12 C          18.4545    0.7500    0.0000 C.3     1  UNL1       -0.0531
     13 C          27.1147    0.7500    0.0000 C.3     1  UNL1       -0.0531
     14 C          17.5885    0.2500    0.0000 C.3     1  UNL1       -0.0531
     15 C          27.9808    0.2500    0.0000 C.3     1  UNL1       -0.0531
     16 C          16.7224    0.7500    0.0000 C.3     1  UNL1       -0.0531
     17 C          28.8468    0.7500    0.0000 C.3     1  UNL1       -0.0531
     18 C          15.8564    0.2500    0.0000 C.3     1  UNL1       -0.0531
     19 C          29.7128    0.2500    0.0000 C.3     1  UNL1       -0.0531
     20 C          14.9904    0.7500    0.0000 C.3     1  UNL1       -0.0531
     21 C          30.5788    0.7500    0.0000 C.3     1  UNL1       -0.0531
     22 C          14.1244    0.2500    0.0000 C.3     1  UNL1       -0.0531
     23 C          31.4449    0.2500    0.0000 C.3     1  UNL1       -0.0531
     24 C          13.2583    0.7500    0.0000 C.3     1  UNL1       -0.0530
     25 C          32.3109    0.7500    0.0000 C.3     1  UNL1       -0.0531
     26 C          12.3923    0.2500    0.0000 C.3     1  UNL1       -0.0500
     27 C          33.1769    0.2500    0.0000 C.3     1  UNL1       -0.0533
     28 C          11.5263    0.7500    0.0000 C.3     1  UNL1       -0.0185
     29 C          34.0429    0.7500    0.0000 C.3     1  UNL1       -0.0559
     30 C          10.6603    0.2500    0.0000 C.3     1  UNL1        0.0925
     31 C          34.9090    0.2500    0.0000 C.3     1  UNL1       -0.0653
     32 C           8.9282    0.2500    0.0000 C.2     1  UNL1        0.3074
     33 C           8.0622    0.7500    0.0000 C.3     1  UNL1        0.0483
     34 C           7.1962    0.2500    0.0000 C.3     1  UNL1       -0.0247
     35 C           6.3301    0.7500    0.0000 C.2     1  UNL1       -0.0874
     36 C           4.5981    0.7500    0.0000 C.3     1  UNL1       -0.0348
     37 C           5.4641    0.2500    0.0000 C.2     1  UNL1       -0.0879
     38 C           3.7320    0.2500    0.0000 C.3     1  UNL1       -0.0499
     39 C           2.8660    0.7500    0.0000 C.3     1  UNL1       -0.0556
     40 C           2.0000    0.2500    0.0000 C.3     1  UNL1       -0.0653
     41 H          22.3861   -0.2249    0.0000 H       1  UNL1        0.0265
     42 H          23.1831   -0.2249    0.0000 H       1  UNL1        0.0265
     43 H          22.3171    1.2250    0.0000 H       1  UNL1        0.0265
     44 H          21.5201    1.2250    0.0000 H       1  UNL1        0.0265
     45 H          24.0492    1.2250    0.0000 H       1  UNL1        0.0265
     46 H          23.2521    1.2250    0.0000 H       1  UNL1        0.0265
     47 H          20.6540   -0.2249    0.0000 H       1  UNL1        0.0265
     48 H          21.4511   -0.2249    0.0000 H       1  UNL1        0.0265
     49 H          24.1181   -0.2249    0.0000 H       1  UNL1        0.0265
     50 H          24.9152   -0.2249    0.0000 H       1  UNL1        0.0265
     51 H          20.5851    1.2250    0.0000 H       1  UNL1        0.0265
     52 H          19.7880    1.2250    0.0000 H       1  UNL1        0.0265
     53 H          25.7812    1.2250    0.0000 H       1  UNL1        0.0265
     54 H          24.9842    1.2250    0.0000 H       1  UNL1        0.0265
     55 H          18.9220   -0.2249    0.0000 H       1  UNL1        0.0265
     56 H          19.7190   -0.2249    0.0000 H       1  UNL1        0.0265
     57 H          25.8502   -0.2249    0.0000 H       1  UNL1        0.0265
     58 H          26.6472   -0.2249    0.0000 H       1  UNL1        0.0265
     59 H          18.8530    1.2250    0.0000 H       1  UNL1        0.0265
     60 H          18.0560    1.2250    0.0000 H       1  UNL1        0.0265
     61 H          27.5133    1.2250    0.0000 H       1  UNL1        0.0265
     62 H          26.7162    1.2250    0.0000 H       1  UNL1        0.0265
     63 H          17.1899   -0.2249    0.0000 H       1  UNL1        0.0265
     64 H          17.9870   -0.2249    0.0000 H       1  UNL1        0.0265
     65 H          27.5822   -0.2249    0.0000 H       1  UNL1        0.0265
     66 H          28.3793   -0.2249    0.0000 H       1  UNL1        0.0265
     67 H          17.1210    1.2250    0.0000 H       1  UNL1        0.0265
     68 H          16.3239    1.2250    0.0000 H       1  UNL1        0.0265
     69 H          29.2453    1.2250    0.0000 H       1  UNL1        0.0265
     70 H          28.4483    1.2250    0.0000 H       1  UNL1        0.0265
     71 H          15.4579   -0.2249    0.0000 H       1  UNL1        0.0265
     72 H          16.2549   -0.2249    0.0000 H       1  UNL1        0.0265
     73 H          29.3143   -0.2249    0.0000 H       1  UNL1        0.0265
     74 H          30.1113   -0.2249    0.0000 H       1  UNL1        0.0265
     75 H          15.3889    1.2250    0.0000 H       1  UNL1        0.0265
     76 H          14.5919    1.2250    0.0000 H       1  UNL1        0.0265
     77 H          30.9774    1.2250    0.0000 H       1  UNL1        0.0265
     78 H          30.1803    1.2250    0.0000 H       1  UNL1        0.0265
     79 H          13.7258   -0.2249    0.0000 H       1  UNL1        0.0265
     80 H          14.5229   -0.2249    0.0000 H       1  UNL1        0.0265
     81 H          31.0463   -0.2249    0.0000 H       1  UNL1        0.0265
     82 H          31.8434   -0.2249    0.0000 H       1  UNL1        0.0265
     83 H          13.6569    1.2250    0.0000 H       1  UNL1        0.0265
     84 H          12.8598    1.2250    0.0000 H       1  UNL1        0.0265
     85 H          32.7094    1.2250    0.0000 H       1  UNL1        0.0265
     86 H          31.9124    1.2250    0.0000 H       1  UNL1        0.0265
     87 H          11.9938   -0.2249    0.0000 H       1  UNL1        0.0266
     88 H          12.7908   -0.2249    0.0000 H       1  UNL1        0.0266
     89 H          32.7784   -0.2249    0.0000 H       1  UNL1        0.0265
     90 H          33.5754   -0.2249    0.0000 H       1  UNL1        0.0265
     91 H          11.9248    1.2250    0.0000 H       1  UNL1        0.0298
     92 H          11.1278    1.2250    0.0000 H       1  UNL1        0.0298
     93 H          34.4415    1.2250    0.0000 H       1  UNL1        0.0263
     94 H          33.6444    1.2250    0.0000 H       1  UNL1        0.0263
     95 H          10.2617   -0.2249    0.0000 H       1  UNL1        0.0697
     96 H          11.0588   -0.2249    0.0000 H       1  UNL1        0.0697
     97 H          34.5990   -0.2869    0.0000 H       1  UNL1        0.0230
     98 H          35.4459   -0.0600    0.0000 H       1  UNL1        0.0230
     99 H          35.2190    0.7869    0.0000 H       1  UNL1        0.0230
    100 H           8.4607    1.2250    0.0000 H       1  UNL1        0.0380
    101 H           7.6636    1.2250    0.0000 H       1  UNL1        0.0380
    102 H           6.7976   -0.2249    0.0000 H       1  UNL1        0.0312
    103 H           7.5947   -0.2249    0.0000 H       1  UNL1        0.0312
    104 H           6.3301    1.3700    0.0000 H       1  UNL1        0.0569
    105 H           4.9966    1.2250    0.0000 H       1  UNL1        0.0307
    106 H           4.1996    1.2250    0.0000 H       1  UNL1        0.0307
    107 H           5.4641   -0.3700    0.0000 H       1  UNL1        0.0569
    108 H           3.3335   -0.2249    0.0000 H       1  UNL1        0.0268
    109 H           4.1306   -0.2249    0.0000 H       1  UNL1        0.0268
    110 H           3.2646    1.2250    0.0000 H       1  UNL1        0.0263
    111 H           2.4675    1.2250    0.0000 H       1  UNL1        0.0263
    112 H           1.6900    0.7869    0.0000 H       1  UNL1        0.0230
    113 H           1.4631   -0.0600    0.0000 H       1  UNL1        0.0230
    114 H           2.3100   -0.2869    0.0000 H       1  UNL1        0.0230
@<TRIPOS>BOND
     1     1    30    1
     2     1    32    1
     3     2    32    2
     4     3     4    1
     5     3     5    1
     6     3    41    1
     7     3    42    1
     8     4     6    1
     9     4    43    1
    10     4    44    1
    11     5     7    1
    12     5    45    1
    13     5    46    1
    14     6     8    1
    15     6    47    1
    16     6    48    1
    17     7     9    1
    18     7    49    1
    19     7    50    1
    20     8    10    1
    21     8    51    1
    22     8    52    1
    23     9    11    1
    24     9    53    1
    25     9    54    1
    26    10    12    1
    27    10    55    1
    28    10    56    1
    29    11    13    1
    30    11    57    1
    31    11    58    1
    32    12    14    1
    33    12    59    1
    34    12    60    1
    35    13    15    1
    36    13    61    1
    37    13    62    1
    38    14    16    1
    39    14    63    1
    40    14    64    1
    41    15    17    1
    42    15    65    1
    43    15    66    1
    44    16    18    1
    45    16    67    1
    46    16    68    1
    47    17    19    1
    48    17    69    1
    49    17    70    1
    50    18    20    1
    51    18    71    1
    52    18    72    1
    53    19    21    1
    54    19    73    1
    55    19    74    1
    56    20    22    1
    57    20    75    1
    58    20    76    1
    59    21    23    1
    60    21    77    1
    61    21    78    1
    62    22    24    1
    63    22    79    1
    64    22    80    1
    65    23    25    1
    66    23    81    1
    67    23    82    1
    68    24    26    1
    69    24    83    1
    70    24    84    1
    71    25    27    1
    72    25    85    1
    73    25    86    1
    74    26    28    1
    75    26    87    1
    76    26    88    1
    77    27    29    1
    78    27    89    1
    79    27    90    1
    80    28    30    1
    81    28    91    1
    82    28    92    1
    83    29    31    1
    84    29    93    1
    85    29    94    1
    86    30    95    1
    87    30    96    1
    88    31    97    1
    89    31    98    1
    90    31    99    1
    91    32    33    1
    92    33    34    1
    93    33   100    1
    94    33   101    1
    95    34    35    1
    96    34   102    1
    97    34   103    1
    98    35    37    2
    99    35   104    1
   100    36    37    1
   101    36    38    1
   102    36   105    1
   103    36   106    1
   104    37   107    1
   105    38    39    1
   106    38   108    1
   107    38   109    1
   108    39    40    1
   109    39   110    1
   110    39   111    1
   111    40   112    1
   112    40   113    1
   113    40   114    1
