@<TRIPOS>MOLECULE
IMPHY005242
 84 89 0 0 0
SMALL
GASTEIGER

@<TRIPOS>ATOM
      1 O          10.4417    0.5141    0.0000 O.3     1  UNL1       -0.3915
      2 O           2.5381   -2.0177    0.0000 O.3     1  UNL1       -0.3912
      3 O           4.3283   -3.7602    0.0000 O.3     1  UNL1       -0.3944
      4 O          10.5537    3.4211    0.0000 O.3     1  UNL1       -0.3704
      5 C           6.0682    0.0064    0.0000 C.3     1  UNL1       -0.0194
      6 C           5.2022   -0.4936    0.0000 C.3     1  UNL1       -0.0192
      7 C           5.2020    0.5068    0.0000 C.3     1  UNL1       -0.0401
      8 C           6.9343   -0.4936    0.0000 C.3     1  UNL1       -0.0288
      9 C           5.2022   -1.4936    0.0000 C.3     1  UNL1       -0.0250
     10 C           7.8443    0.0133    0.0000 C.3     1  UNL1       -0.0206
     11 C           6.0522    1.0479    0.0000 C.3     1  UNL1       -0.0460
     12 C           7.8523    1.0548    0.0000 C.3     1  UNL1       -0.0208
     13 C           4.3083    0.0411    0.0000 C.3     1  UNL1       -0.0442
     14 C           6.9343   -1.4936    0.0000 C.3     1  UNL1       -0.0489
     15 C           6.0682   -1.9936    0.0000 C.3     1  UNL1       -0.0488
     16 C           6.9502    1.5757    0.0000 C.3     1  UNL1       -0.0462
     17 C           4.3083   -2.0282    0.0000 C.3     1  UNL1        0.0203
     18 C           8.8403    1.3647    0.0000 C.3     1  UNL1       -0.0041
     19 C           8.8274   -0.3118    0.0000 C.3     1  UNL1       -0.0204
     20 C           3.4022   -0.4728    0.0000 C.3     1  UNL1       -0.0257
     21 C           9.4418    0.5218    0.0000 C.3     1  UNL1        0.0594
     22 C           3.4022   -1.5144    0.0000 C.3     1  UNL1        0.0630
     23 C           7.8366   -0.9867    0.0000 C.3     1  UNL1       -0.0587
     24 C           7.8600    2.0548    0.0000 C.3     1  UNL1       -0.0587
     25 C           9.1583    2.3128    0.0000 C.3     1  UNL1       -0.0118
     26 C           3.8183   -2.9000    0.0000 C.3     1  UNL1        0.0522
     27 C           4.8183   -2.8884    0.0000 C.3     1  UNL1       -0.0548
     28 C          10.1384    2.5114    0.0000 C.3     1  UNL1        0.0624
     29 C           8.4962    3.0622    0.0000 C.3     1  UNL1       -0.0597
     30 C          10.8752    1.8353    0.0000 C.3     1  UNL1       -0.0237
     31 C          11.7459    2.3271    0.0000 C.3     1  UNL1       -0.0219
     32 C          11.5472    3.3072    0.0000 C.3     1  UNL1        0.0644
     33 C          12.5273    3.5058    0.0000 C.3     1  UNL1       -0.0361
     34 C          11.6611    4.3007    0.0000 C.3     1  UNL1       -0.0361
     35 H           5.4141    1.0894    0.0000 H       1  UNL1        0.0276
     36 H           4.5914    0.6145    0.0000 H       1  UNL1        0.0276
     37 H           7.6671   -0.9243    0.0000 H       1  UNL1        0.0312
     38 H           5.2088   -2.3436    0.0000 H       1  UNL1        0.0313
     39 H           5.8342    1.6283    0.0000 H       1  UNL1        0.0271
     40 H           5.4431    0.9324    0.0000 H       1  UNL1        0.0271
     41 H           4.7129    0.5109    0.0000 H       1  UNL1        0.0272
     42 H           3.9147    0.5201    0.0000 H       1  UNL1        0.0272
     43 H           7.1463   -2.0762    0.0000 H       1  UNL1        0.0268
     44 H           7.5449   -1.3859    0.0000 H       1  UNL1        0.0268
     45 H           5.6697   -2.4685    0.0000 H       1  UNL1        0.0268
     46 H           6.4668   -2.4685    0.0000 H       1  UNL1        0.0268
     47 H           7.3475    2.0516    0.0000 H       1  UNL1        0.0271
     48 H           6.5493    2.0486    0.0000 H       1  UNL1        0.0271
     49 H           8.2453    1.9716    0.0000 H       1  UNL1        0.0334
     50 H           8.5720   -0.8767    0.0000 H       1  UNL1        0.0296
     51 H           9.3624   -0.6251    0.0000 H       1  UNL1        0.0296
     52 H           3.1932    0.1109    0.0000 H       1  UNL1        0.0290
     53 H           2.7914   -0.5789    0.0000 H       1  UNL1        0.0290
     54 H           9.7192   -0.0327    0.0000 H       1  UNL1        0.0596
     55 H           2.8647   -1.2054    0.0000 H       1  UNL1        0.0599
     56 H           7.2166   -0.9819    0.0000 H       1  UNL1        0.0235
     57 H           7.8318   -1.6067    0.0000 H       1  UNL1        0.0235
     58 H           8.4566   -0.9915    0.0000 H       1  UNL1        0.0235
     59 H           8.4800    2.0500    0.0000 H       1  UNL1        0.0235
     60 H           7.8648    2.6748    0.0000 H       1  UNL1        0.0235
     61 H           7.2400    2.0596    0.0000 H       1  UNL1        0.0235
     62 H           9.3555    2.9006    0.0000 H       1  UNL1        0.0327
     63 H           3.3388   -2.5070    0.0000 H       1  UNL1        0.0563
     64 H           3.3480   -3.3040    0.0000 H       1  UNL1        0.0563
     65 H           4.2850   -3.2046    0.0000 H       1  UNL1        0.0237
     66 H           5.1344   -3.4218    0.0000 H       1  UNL1        0.0237
     67 H           5.3516   -2.5722    0.0000 H       1  UNL1        0.0237
     68 H          10.9714    2.6803    0.0000 H       1  UNL1        0.0599
     69 H          10.7476   -0.0253    0.0000 H       1  UNL1        0.2098
     70 H           2.0000   -1.7098    0.0000 H       1  UNL1        0.2098
     71 H           8.9609    3.4727    0.0000 H       1  UNL1        0.0233
     72 H           8.0857    3.5268    0.0000 H       1  UNL1        0.0233
     73 H           8.0316    2.6517    0.0000 H       1  UNL1        0.0233
     74 H           4.0245   -4.3007    0.0000 H       1  UNL1        0.2094
     75 H          10.4105    1.4248    0.0000 H       1  UNL1        0.0291
     76 H          11.2349    1.3303    0.0000 H       1  UNL1        0.0291
     77 H          11.9927    1.7584    0.0000 H       1  UNL1        0.0294
     78 H          12.3373    2.5131    0.0000 H       1  UNL1        0.0294
     79 H          12.2771    4.2300    0.0000 H       1  UNL1        0.0257
     80 H          12.6505    2.8982    0.0000 H       1  UNL1        0.0257
     81 H          13.1349    3.6290    0.0000 H       1  UNL1        0.0257
     82 H          11.7318    4.9166    0.0000 H       1  UNL1        0.0257
     83 H          11.0452    4.3713    0.0000 H       1  UNL1        0.0257
     84 H          12.4041    4.1135    0.0000 H       1  UNL1        0.0257
@<TRIPOS>BOND
     1    21     1    1
     2     1    69    1
     3    22     2    1
     4     2    70    1
     5     3    26    1
     6     3    74    1
     7     4    28    1
     8     4    32    1
     9     5     6    1
    10     5     7    1
    11     5     8    1
    12     5    11    1
    13     6     7    1
    14     6     9    1
    15     6    13    1
    16     7    35    1
    17     7    36    1
    18     8    10    1
    19     8    14    1
    20     8    37    1
    21     9    15    1
    22     9    17    1
    23     9    38    1
    24    10    12    1
    25    10    19    1
    26    10    23    1
    27    11    16    1
    28    11    39    1
    29    11    40    1
    30    12    16    1
    31    12    18    1
    32    12    24    1
    33    13    20    1
    34    13    41    1
    35    13    42    1
    36    14    15    1
    37    14    43    1
    38    14    44    1
    39    15    45    1
    40    15    46    1
    41    16    47    1
    42    16    48    1
    43    17    22    1
    44    17    26    1
    45    17    27    1
    46    18    21    1
    47    18    25    1
    48    18    49    1
    49    19    21    1
    50    19    50    1
    51    19    51    1
    52    20    22    1
    53    20    52    1
    54    20    53    1
    55    21    54    1
    56    22    55    1
    57    23    56    1
    58    23    57    1
    59    23    58    1
    60    24    59    1
    61    24    60    1
    62    24    61    1
    63    25    28    1
    64    25    29    1
    65    25    62    1
    66    26    63    1
    67    26    64    1
    68    27    65    1
    69    27    66    1
    70    27    67    1
    71    28    30    1
    72    28    68    1
    73    29    71    1
    74    29    72    1
    75    29    73    1
    76    30    31    1
    77    30    75    1
    78    30    76    1
    79    31    32    1
    80    31    77    1
    81    31    78    1
    82    32    33    1
    83    32    34    1
    84    33    80    1
    85    33    81    1
    86    33    84    1
    87    34    79    1
    88    34    82    1
    89    34    83    1
