@<TRIPOS>MOLECULE
IMPHY016370
 27 26 0 0 0
SMALL
GASTEIGER

@<TRIPOS>ATOM
      1 S           4.5981   -0.5950    0.0000 S.3     1  UNL1       -0.1747
      2 O           7.1962    0.9050    0.0000 O.3     1  UNL1       -0.4648
      3 O           8.0622   -0.5950    0.0000 O.2     1  UNL1       -0.2512
      4 C           4.5981    0.4050    0.0000 C.3     1  UNL1        0.0053
      5 C           3.7320    0.9050    0.0000 C.3     1  UNL1       -0.0415
      6 C           5.4641    0.9050    0.0000 C.3     1  UNL1       -0.0069
      7 C           2.8660    0.4050    0.0000 C.3     1  UNL1       -0.0549
      8 C           6.3301    0.4050    0.0000 C.3     1  UNL1        0.0934
      9 C           2.0000    0.9050    0.0000 C.3     1  UNL1       -0.0652
     10 C           8.0622    0.4050    0.0000 C.2     1  UNL1        0.3039
     11 C           8.9282    0.9050    0.0000 C.3     1  UNL1        0.0332
     12 H           5.1350    0.0950    0.0000 H       1  UNL1        0.0411
     13 H           4.1306    1.3800    0.0000 H       1  UNL1        0.0276
     14 H           3.3335    1.3800    0.0000 H       1  UNL1        0.0276
     15 H           5.8626    1.3800    0.0000 H       1  UNL1        0.0308
     16 H           5.0656    1.3800    0.0000 H       1  UNL1        0.0308
     17 H           2.4675   -0.0699    0.0000 H       1  UNL1        0.0263
     18 H           3.2646   -0.0699    0.0000 H       1  UNL1        0.0263
     19 H           5.9316   -0.0699    0.0000 H       1  UNL1        0.0698
     20 H           6.7287   -0.0699    0.0000 H       1  UNL1        0.0698
     21 H           2.3100    1.4419    0.0000 H       1  UNL1        0.0230
     22 H           1.4631    1.2150    0.0000 H       1  UNL1        0.0230
     23 H           1.6900    0.3681    0.0000 H       1  UNL1        0.0230
     24 H           4.0611   -0.9050    0.0000 H       1  UNL1        0.1019
     25 H           9.2382    0.3681    0.0000 H       1  UNL1        0.0342
     26 H           9.4651    1.2150    0.0000 H       1  UNL1        0.0342
     27 H           8.6182    1.4419    0.0000 H       1  UNL1        0.0342
@<TRIPOS>BOND
     1     1     4    1
     2     1    24    1
     3     2     8    1
     4     2    10    1
     5     3    10    2
     6     4     5    1
     7     4     6    1
     8     4    12    1
     9     5     7    1
    10     5    13    1
    11     5    14    1
    12     6     8    1
    13     6    15    1
    14     6    16    1
    15     7     9    1
    16     7    17    1
    17     7    18    1
    18     8    19    1
    19     8    20    1
    20     9    21    1
    21     9    22    1
    22     9    23    1
    23    10    11    1
    24    11    25    1
    25    11    26    1
    26    11    27    1
