@<TRIPOS>MOLECULE
IMPHY002406
 21 23 0 0 0
SMALL
GASTEIGER

@<TRIPOS>ATOM
      1 C           1.7323    4.9441    0.0000 C.ar    1  UNL1        0.0152
      2 C           2.6822    4.6356    0.0000 C.ar    1  UNL1       -0.0011
      3 C           1.7323    5.9427    0.0000 C.ar    1  UNL1        0.0810
      4 C           0.8649    4.4388    0.0000 C.ar    1  UNL1        0.0012
      5 C           3.2702    5.4422    0.0000 C.ar    1  UNL1        0.0946
      6 C           2.9932    3.6832    0.0000 C.3     1  UNL1        0.0396
      7 N           2.6822    6.2488    0.0000 N.ar    1  UNL1       -0.2442
      8 C           0.8698    6.4432    0.0000 C.ar    1  UNL1        0.0191
      9 C           0.0000    4.9369    0.0000 C.ar    1  UNL1        0.0001
     10 C           3.9699    3.4743    0.0000 C.3     1  UNL1        0.1143
     11 C           0.0000    5.9403    0.0000 C.ar    1  UNL1        0.0015
     12 C           4.2784    2.5243    0.0000 C.2     1  UNL1        0.3176
     13 O           5.2576    2.3154    0.0000 O.3     1  UNL1       -0.4435
     14 O           3.6103    1.7809    0.0000 O.2     1  UNL1       -0.2501
     15 C           5.5661    1.3654    0.0000 C.3     1  UNL1        0.2350
     16 C           6.5452    1.1565    0.0000 C.ar    1  UNL1        0.0213
     17 C           7.2134    1.8999    0.0000 C.ar    1  UNL1       -0.0007
     18 C           6.8538    0.2065    0.0000 C.ar    1  UNL1       -0.0007
     19 C           8.1925    1.6934    0.0000 C.ar    1  UNL1       -0.0002
     20 C           7.8329    0.0000    0.0000 C.ar    1  UNL1       -0.0002
     21 C           8.5034    0.7410    0.0000 C.ar    1  UNL1       -0.0000
@<TRIPOS>BOND
     1     1     2   ar
     2     1     3   ar
     3     1     4   ar
     4     2     5   ar
     5     2     6    1
     6     3     7   ar
     7     3     8   ar
     8     4     9   ar
     9     5     7   ar
    10     6    10    1
    11     8    11   ar
    12     9    11   ar
    13    10    12    1
    14    12    13    1
    15    12    14    2
    16    13    15    1
    17    15    16    1
    18    16    17   ar
    19    16    18   ar
    20    17    19   ar
    21    18    20   ar
    22    19    21   ar
    23    20    21   ar
