@<TRIPOS>MOLECULE
IMPHY000386
 75 80 0 0 0
SMALL
GASTEIGER

@<TRIPOS>ATOM
      1 O           4.2404   -0.7026    0.0000 O.3     1  UNL1       -0.3877
      2 O           5.7580   -1.8714    0.0000 O.3     1  UNL1       -0.3790
      3 O           7.5806    1.8904    0.0000 O.3     1  UNL1       -0.3912
      4 O           3.8642    1.6388    0.0000 O.3     1  UNL1       -0.4608
      5 O           3.4630    2.3483    0.0000 O.3     1  UNL1       -0.3793
      6 O           8.4466   -2.3448    0.0000 O.3     1  UNL1       -0.3824
      7 O           3.7089   -0.0862    0.0000 O.2     1  UNL1       -0.2512
      8 N           8.7760    0.0613    0.0000 N.3     1  UNL1       -0.2980
      9 C           6.8293    0.4566    0.0000 C.3     1  UNL1        0.0217
     10 C           6.8293   -0.4110    0.0000 C.3     1  UNL1        0.0043
     11 C           6.1510    0.9975    0.0000 C.3     1  UNL1       -0.0219
     12 C           7.8312    0.3505    0.0000 C.3     1  UNL1        0.0268
     13 C           5.3052   -0.7589    0.0000 C.3     1  UNL1        0.0310
     14 C           5.3052    0.8044    0.0000 C.3     1  UNL1        0.0293
     15 C           4.9287    0.0228    0.0000 C.3     1  UNL1        0.0815
     16 C           6.1510   -0.9519    0.0000 C.3     1  UNL1        0.0693
     17 C           7.5806   -0.8448    0.0000 C.3     1  UNL1        0.0127
     18 C           7.5806    0.8904    0.0000 C.3     1  UNL1        0.0629
     19 C           6.2288    1.8616    0.0000 C.3     1  UNL1       -0.0405
     20 C           5.4310    2.2026    0.0000 C.3     1  UNL1        0.0231
     21 C           4.8602    1.5492    0.0000 C.3     1  UNL1        0.1139
     22 C           4.2838    0.2927    0.0000 C.3     1  UNL1        0.0035
     23 C           8.7760   -0.6906    0.0000 C.3     1  UNL1        0.0073
     24 C           8.3320   -0.4110    0.0000 C.3     1  UNL1       -0.0414
     25 C           4.2838    1.7772    0.0000 C.3     1  UNL1        0.0671
     26 C           8.3320    0.4566    0.0000 C.3     1  UNL1       -0.0256
     27 C           7.5806   -1.8448    0.0000 C.3     1  UNL1        0.0544
     28 C           9.5799    0.6560    0.0000 C.3     1  UNL1       -0.0036
     29 C           6.3578   -2.6716    0.0000 C.3     1  UNL1        0.0368
     30 C          10.4969    0.2571    0.0000 C.3     1  UNL1       -0.0523
     31 C           3.2886    0.8211    0.0000 C.2     1  UNL1        0.3042
     32 C           3.5471    3.3448    0.0000 C.3     1  UNL1        0.0368
     33 C           8.4466   -3.3448    0.0000 C.3     1  UNL1        0.0365
     34 C           2.2926    0.9108    0.0000 C.3     1  UNL1        0.0332
     35 H           6.8928   -1.2586    0.0000 H       1  UNL1        0.0339
     36 H           6.9326    1.3316    0.0000 H       1  UNL1        0.0312
     37 H           8.2758    1.0750    0.0000 H       1  UNL1        0.0473
     38 H           4.7752   -1.4234    0.0000 H       1  UNL1        0.0369
     39 H           4.4560    0.7663    0.0000 H       1  UNL1        0.0368
     40 H           6.3514   -1.5386    0.0000 H       1  UNL1        0.0603
     41 H           7.0437    1.2004    0.0000 H       1  UNL1        0.0599
     42 H           6.4115    2.4540    0.0000 H       1  UNL1        0.0273
     43 H           6.8371    1.7418    0.0000 H       1  UNL1        0.0273
     44 H           5.4518    3.0523    0.0000 H       1  UNL1        0.0362
     45 H           4.6293    2.1246    0.0000 H       1  UNL1        0.0741
     46 H           4.1219   -0.3058    0.0000 H       1  UNL1        0.0318
     47 H           3.6692    0.3744    0.0000 H       1  UNL1        0.0318
     48 H           9.3954   -0.6640    0.0000 H       1  UNL1        0.0433
     49 H           8.8289   -1.3083    0.0000 H       1  UNL1        0.0433
     50 H           8.9425   -0.3033    0.0000 H       1  UNL1        0.0273
     51 H           8.5440   -0.9936    0.0000 H       1  UNL1        0.0273
     52 H           4.3620    2.3923    0.0000 H       1  UNL1        0.0601
     53 H           8.5440    1.0392    0.0000 H       1  UNL1        0.0290
     54 H           8.9425    0.3489    0.0000 H       1  UNL1        0.0290
     55 H           7.3686   -2.4274    0.0000 H       1  UNL1        0.0566
     56 H           6.9700   -1.7371    0.0000 H       1  UNL1        0.0566
     57 H           4.0956   -1.3055    0.0000 H       1  UNL1        0.2102
     58 H           9.1303    1.0829    0.0000 H       1  UNL1        0.0424
     59 H           9.9222    1.1730    0.0000 H       1  UNL1        0.0424
     60 H           8.1176    2.2004    0.0000 H       1  UNL1        0.2098
     61 H           6.8539   -2.2997    0.0000 H       1  UNL1        0.0524
     62 H           6.7297   -3.1677    0.0000 H       1  UNL1        0.0524
     63 H           5.8617   -3.0435    0.0000 H       1  UNL1        0.0524
     64 H          10.7442    0.8256    0.0000 H       1  UNL1        0.0242
     65 H          11.0654    0.0098    0.0000 H       1  UNL1        0.0242
     66 H          10.2496   -0.3114    0.0000 H       1  UNL1        0.0242
     67 H           2.9293    3.3970    0.0000 H       1  UNL1        0.0524
     68 H           3.5993    3.9626    0.0000 H       1  UNL1        0.0524
     69 H           4.1649    3.2926    0.0000 H       1  UNL1        0.0524
     70 H           9.0666   -3.3448    0.0000 H       1  UNL1        0.0523
     71 H           8.4466   -3.9648    0.0000 H       1  UNL1        0.0523
     72 H           7.8266   -3.3448    0.0000 H       1  UNL1        0.0523
     73 H           2.2370    0.2933    0.0000 H       1  UNL1        0.0342
     74 H           1.6751    0.9664    0.0000 H       1  UNL1        0.0342
     75 H           2.3482    1.5283    0.0000 H       1  UNL1        0.0342
@<TRIPOS>BOND
     1    15     1    1
     2     1    57    1
     3    16     2    1
     4     2    29    1
     5    18     3    1
     6     3    60    1
     7    21     4    1
     8     4    31    1
     9    25     5    1
    10     5    32    1
    11     6    27    1
    12     6    33    1
    13     7    31    2
    14     8    12    1
    15     8    23    1
    16     8    28    1
    17     9    10    1
    18     9    11    1
    19     9    12    1
    20     9    18    1
    21    10    16    1
    22    10    17    1
    23    10    35    1
    24    11    14    1
    25    11    19    1
    26    11    36    1
    27    12    13    1
    28    12    37    1
    29    13    15    1
    30    13    16    1
    31    13    38    1
    32    14    15    1
    33    14    21    1
    34    14    39    1
    35    15    22    1
    36    16    40    1
    37    17    23    1
    38    17    24    1
    39    17    27    1
    40    18    26    1
    41    18    41    1
    42    19    20    1
    43    19    42    1
    44    19    43    1
    45    20    21    1
    46    20    25    1
    47    20    44    1
    48    21    45    1
    49    22    25    1
    50    22    46    1
    51    22    47    1
    52    23    48    1
    53    23    49    1
    54    24    26    1
    55    24    50    1
    56    24    51    1
    57    25    52    1
    58    26    53    1
    59    26    54    1
    60    27    55    1
    61    27    56    1
    62    28    30    1
    63    28    58    1
    64    28    59    1
    65    29    61    1
    66    29    62    1
    67    29    63    1
    68    30    64    1
    69    30    65    1
    70    30    66    1
    71    31    34    1
    72    32    67    1
    73    32    68    1
    74    32    69    1
    75    33    70    1
    76    33    71    1
    77    33    72    1
    78    34    73    1
    79    34    74    1
    80    34    75    1
