@<TRIPOS>MOLECULE
IMPHY001535
 37 39 0 0 0
SMALL
GASTEIGER

@<TRIPOS>ATOM
      1 O           7.2901    1.0347    0.0000 O.3     1  UNL1       -0.4777
      2 O           3.7702    1.0347    0.0000 O.2     1  UNL1       -0.4182
      3 O           5.5301   -2.0000    0.0000 O.3     1  UNL1       -0.4937
      4 O           5.5301    2.0000    0.0000 O.3     1  UNL1       -0.4885
      5 O           2.0000    1.0241    0.0000 O.2     1  UNL1       -0.2452
      6 C           8.1962    0.5208    0.0000 C.3     1  UNL1        0.1237
      7 C           6.3961    0.5000    0.0000 C.ar    1  UNL1        0.1775
      8 C           6.3961   -0.5000    0.0000 C.ar    1  UNL1        0.0626
      9 C           8.1962   -0.5208    0.0000 C.2     1  UNL1       -0.0408
     10 C           7.2901   -1.0347    0.0000 C.2     1  UNL1       -0.0477
     11 C           9.1962    0.5247    0.0000 C.3     1  UNL1       -0.0215
     12 C           8.6928    1.3888    0.0000 C.3     1  UNL1       -0.0215
     13 C           5.5301   -1.0000    0.0000 C.ar    1  UNL1        0.1416
     14 C           5.5301    1.0000    0.0000 C.ar    1  UNL1        0.2058
     15 C           4.6641   -0.5000    0.0000 C.ar    1  UNL1        0.0637
     16 C           4.6641    0.5000    0.0000 C.ar    1  UNL1        0.1876
     17 C           3.7702   -1.0347    0.0000 C.ar    1  UNL1       -0.0406
     18 C           2.8641   -0.5208    0.0000 C.ar    1  UNL1        0.0237
     19 C           2.8641    0.5208    0.0000 C.ar    1  UNL1        0.3373
     20 C           4.6641   -2.5000    0.0000 C.3     1  UNL1        0.0788
     21 C           4.6641    2.5000    0.0000 C.3     1  UNL1        0.0791
     22 H           8.7319   -0.8329    0.0000 H       1  UNL1        0.0611
     23 H           7.2829   -1.6546    0.0000 H       1  UNL1        0.0624
     24 H           9.2310    1.0808    0.0000 H       1  UNL1        0.0271
     25 H           9.0008    1.9269    0.0000 H       1  UNL1        0.0271
     26 H           8.1547    1.6967    0.0000 H       1  UNL1        0.0271
     27 H           9.1985   -0.0953    0.0000 H       1  UNL1        0.0271
     28 H           9.8162    0.5271    0.0000 H       1  UNL1        0.0271
     29 H           9.1938    1.1447    0.0000 H       1  UNL1        0.0271
     30 H           3.7773   -1.6546    0.0000 H       1  UNL1        0.0628
     31 H           2.3284   -0.8329    0.0000 H       1  UNL1        0.0689
     32 H           4.3541   -1.9631    0.0000 H       1  UNL1        0.0660
     33 H           4.1272   -2.8100    0.0000 H       1  UNL1        0.0660
     34 H           4.9741   -3.0369    0.0000 H       1  UNL1        0.0660
     35 H           4.9741    3.0369    0.0000 H       1  UNL1        0.0660
     36 H           4.1272    2.8100    0.0000 H       1  UNL1        0.0660
     37 H           4.3541    1.9631    0.0000 H       1  UNL1        0.0660
@<TRIPOS>BOND
     1     1     6    1
     2     1     7    1
     3     2    16   ar
     4     2    19   ar
     5     3    13    1
     6     3    20    1
     7     4    14    1
     8     4    21    1
     9     5    19    2
    10     6     9    1
    11     6    11    1
    12     6    12    1
    13     7     8   ar
    14     7    14   ar
    15     8    10    1
    16     8    13   ar
    17     9    10    2
    18     9    22    1
    19    10    23    1
    20    11    27    1
    21    11    28    1
    22    11    29    1
    23    12    24    1
    24    12    25    1
    25    12    26    1
    26    13    15   ar
    27    14    16   ar
    28    15    16   ar
    29    15    17   ar
    30    17    18   ar
    31    17    30    1
    32    18    19   ar
    33    18    31    1
    34    20    32    1
    35    20    33    1
    36    20    34    1
    37    21    35    1
    38    21    36    1
    39    21    37    1
