@<TRIPOS>MOLECULE
IMPHY009108
 72 75 0 0 0
SMALL
GASTEIGER

@<TRIPOS>ATOM
      1 O           5.1350    0.1550    0.0000 O.3     1  UNL1       -0.3313
      2 O          13.7953    0.1550    0.0000 O.3     1  UNL1       -0.3313
      3 O           6.8671    0.1550    0.0000 O.3     1  UNL1       -0.4604
      4 O           3.4030   -1.8450    0.0000 O.3     1  UNL1       -0.3865
      5 O           5.1350   -2.8450    0.0000 O.3     1  UNL1       -0.3864
      6 O          15.5273   -1.8450    0.0000 O.3     1  UNL1       -0.3865
      7 O          13.7953   -2.8450    0.0000 O.3     1  UNL1       -0.3864
      8 O          12.0632    0.1550    0.0000 O.3     1  UNL1       -0.4600
      9 O           6.8671   -1.8450    0.0000 O.3     1  UNL1       -0.3829
     10 O          12.0632   -1.8450    0.0000 O.3     1  UNL1       -0.3829
     11 O           2.5369   -0.3450    0.0000 O.3     1  UNL1       -0.3924
     12 O          16.3933   -0.3450    0.0000 O.3     1  UNL1       -0.3924
     13 O           9.4651    1.6550    0.0000 O.3     1  UNL1       -0.4562
     14 O          10.3312    0.1550    0.0000 O.2     1  UNL1       -0.2448
     15 C           4.2690   -1.3450    0.0000 C.3     1  UNL1        0.1120
     16 C           5.1350   -1.8450    0.0000 C.3     1  UNL1        0.1152
     17 C          14.6613   -1.3450    0.0000 C.3     1  UNL1        0.1120
     18 C          13.7953   -1.8450    0.0000 C.3     1  UNL1        0.1152
     19 C           4.2690   -0.3450    0.0000 C.3     1  UNL1        0.1140
     20 C           6.0010   -1.3450    0.0000 C.3     1  UNL1        0.1454
     21 C          14.6613   -0.3450    0.0000 C.3     1  UNL1        0.1140
     22 C          12.9292   -1.3450    0.0000 C.3     1  UNL1        0.1454
     23 C           6.0010   -0.3450    0.0000 C.3     1  UNL1        0.2308
     24 C          12.9292   -0.3450    0.0000 C.3     1  UNL1        0.2308
     25 C           3.4030    0.1550    0.0000 C.3     1  UNL1        0.0731
     26 C          15.5273    0.1550    0.0000 C.3     1  UNL1        0.0731
     27 C           6.8671    1.1550    0.0000 C.ar    1  UNL1        0.1304
     28 C          12.0632    1.1550    0.0000 C.ar    1  UNL1        0.1380
     29 C           7.7331    1.6550    0.0000 C.ar    1  UNL1        0.0315
     30 C          11.1972    1.6550    0.0000 C.ar    1  UNL1        0.1006
     31 C           6.0010    1.6550    0.0000 C.ar    1  UNL1       -0.0194
     32 C          12.9292    1.6550    0.0000 C.ar    1  UNL1       -0.0190
     33 C           8.5991    1.1550    0.0000 C.3     1  UNL1        0.1212
     34 C           7.7331    2.6550    0.0000 C.ar    1  UNL1       -0.0519
     35 C          10.3312    1.1550    0.0000 C.2     1  UNL1        0.3431
     36 C          11.1972    2.6550    0.0000 C.ar    1  UNL1       -0.0442
     37 C           6.0010    2.6550    0.0000 C.ar    1  UNL1       -0.0583
     38 C          12.9292    2.6550    0.0000 C.ar    1  UNL1       -0.0583
     39 C           6.8671    3.1550    0.0000 C.ar    1  UNL1       -0.0612
     40 C          12.0632    3.1550    0.0000 C.ar    1  UNL1       -0.0608
     41 H           4.2690   -1.9650    0.0000 H       1  UNL1        0.0647
     42 H           5.6720   -2.1550    0.0000 H       1  UNL1        0.0648
     43 H          14.6613   -1.9650    0.0000 H       1  UNL1        0.0647
     44 H          13.2583   -2.1550    0.0000 H       1  UNL1        0.0648
     45 H           4.2690    0.2750    0.0000 H       1  UNL1        0.0647
     46 H           6.5380   -1.0350    0.0000 H       1  UNL1        0.0683
     47 H          14.6613    0.2750    0.0000 H       1  UNL1        0.0647
     48 H          12.3923   -1.0350    0.0000 H       1  UNL1        0.0683
     49 H           6.0010    0.2750    0.0000 H       1  UNL1        0.1084
     50 H          12.9292    0.2750    0.0000 H       1  UNL1        0.1084
     51 H           3.8015    0.6299    0.0000 H       1  UNL1        0.0584
     52 H           3.0044    0.6299    0.0000 H       1  UNL1        0.0584
     53 H          15.9258    0.6299    0.0000 H       1  UNL1        0.0584
     54 H          15.1288    0.6299    0.0000 H       1  UNL1        0.0584
     55 H           3.4030   -2.4650    0.0000 H       1  UNL1        0.2100
     56 H           5.6720   -3.1550    0.0000 H       1  UNL1        0.2100
     57 H          15.5273   -2.4650    0.0000 H       1  UNL1        0.2100
     58 H          14.3322   -3.1550    0.0000 H       1  UNL1        0.2100
     59 H           7.4040   -1.5350    0.0000 H       1  UNL1        0.2102
     60 H          12.0632   -2.4650    0.0000 H       1  UNL1        0.2102
     61 H           2.0000   -0.0350    0.0000 H       1  UNL1        0.2095
     62 H          16.9303   -0.0350    0.0000 H       1  UNL1        0.2095
     63 H           5.4641    1.3450    0.0000 H       1  UNL1        0.0654
     64 H          13.4662    1.3450    0.0000 H       1  UNL1        0.0654
     65 H           8.2006    0.6801    0.0000 H       1  UNL1        0.0750
     66 H           8.9976    0.6801    0.0000 H       1  UNL1        0.0750
     67 H           8.2700    2.9650    0.0000 H       1  UNL1        0.0623
     68 H          10.6603    2.9650    0.0000 H       1  UNL1        0.0627
     69 H           5.4641    2.9650    0.0000 H       1  UNL1        0.0619
     70 H          13.4662    2.9650    0.0000 H       1  UNL1        0.0619
     71 H           6.8671    3.7750    0.0000 H       1  UNL1        0.0618
     72 H          12.0632    3.7750    0.0000 H       1  UNL1        0.0618
@<TRIPOS>BOND
     1     1    19    1
     2     1    23    1
     3     2    21    1
     4     2    24    1
     5    23     3    1
     6     3    27    1
     7    15     4    1
     8     4    55    1
     9    16     5    1
    10     5    56    1
    11    17     6    1
    12     6    57    1
    13    18     7    1
    14     7    58    1
    15    24     8    1
    16     8    28    1
    17    20     9    1
    18     9    59    1
    19    22    10    1
    20    10    60    1
    21    11    25    1
    22    11    61    1
    23    12    26    1
    24    12    62    1
    25    13    33    1
    26    13    35    1
    27    14    35    2
    28    15    16    1
    29    15    19    1
    30    15    41    1
    31    16    20    1
    32    16    42    1
    33    17    18    1
    34    17    21    1
    35    17    43    1
    36    18    22    1
    37    18    44    1
    38    19    25    1
    39    19    45    1
    40    20    23    1
    41    20    46    1
    42    21    26    1
    43    21    47    1
    44    22    24    1
    45    22    48    1
    46    23    49    1
    47    24    50    1
    48    25    51    1
    49    25    52    1
    50    26    53    1
    51    26    54    1
    52    27    29   ar
    53    27    31   ar
    54    28    30   ar
    55    28    32   ar
    56    29    33    1
    57    29    34   ar
    58    30    35    1
    59    30    36   ar
    60    31    37   ar
    61    31    63    1
    62    32    38   ar
    63    32    64    1
    64    33    65    1
    65    33    66    1
    66    34    39   ar
    67    34    67    1
    68    36    40   ar
    69    36    68    1
    70    37    39   ar
    71    37    69    1
    72    38    40   ar
    73    38    70    1
    74    39    71    1
    75    40    72    1
