@<TRIPOS>MOLECULE
IMPHY003085
 40 44 0 0 0
SMALL
GASTEIGER

@<TRIPOS>ATOM
      1 O           4.6571   -3.6452    0.0000 O.3     1  UNL1       -0.4518
      2 O           3.2118   -4.4946    0.0000 O.3     1  UNL1       -0.4526
      3 O           2.0116    3.2222    0.0000 O.3     1  UNL1       -0.4914
      4 O           3.8149    4.2819    0.0000 O.3     1  UNL1       -0.5033
      5 N           4.7340   -0.4148    0.0000 N.ar    1  UNL1       -0.1961
      6 C           5.6440    0.0921    0.0000 C.3     1  UNL1        0.1550
      7 C           3.8680    0.0852    0.0000 C.ar    1  UNL1        0.2159
      8 C           5.6521    1.1337    0.0000 C.3     1  UNL1        0.0330
      9 C           3.8520    1.1267    0.0000 C.ar    1  UNL1        0.0533
     10 C           4.7500    1.6545    0.0000 C.ar    1  UNL1       -0.0243
     11 C           3.8680   -1.9148    0.0000 C.ar    1  UNL1        0.0911
     12 C           4.7340   -1.4148    0.0000 C.ar    1  UNL1        0.1831
     13 C           3.0020   -1.4148    0.0000 C.ar    1  UNL1       -0.0022
     14 C           3.0020   -0.4148    0.0000 C.ar    1  UNL1        0.0183
     15 C           3.8841   -2.9563    0.0000 C.ar    1  UNL1        0.1795
     16 C           2.9000    1.6474    0.0000 C.ar    1  UNL1       -0.0026
     17 C           4.7584    2.7394    0.0000 C.ar    1  UNL1       -0.0124
     18 C           2.0920   -1.9216    0.0000 C.ar    1  UNL1       -0.0499
     19 C           2.9860   -3.4840    0.0000 C.ar    1  UNL1        0.1671
     20 C           2.8833    2.7322    0.0000 C.ar    1  UNL1        0.1620
     21 C           3.8187    3.2819    0.0000 C.ar    1  UNL1        0.1587
     22 C           2.0840   -2.9632    0.0000 C.ar    1  UNL1       -0.0155
     23 C           4.2424   -4.5940    0.0000 C.3     1  UNL1        0.2333
     24 C           2.0000    4.2221    0.0000 C.3     1  UNL1        0.0790
     25 H           5.8486   -0.4932    0.0000 H       1  UNL1        0.1034
     26 H           6.2557    0.1934    0.0000 H       1  UNL1        0.1034
     27 H           6.2621    1.0229    0.0000 H       1  UNL1        0.0375
     28 H           5.8656    1.7157    0.0000 H       1  UNL1        0.0375
     29 H           5.2710   -1.7248    0.0000 H       1  UNL1        0.1384
     30 H           2.4651   -0.1048    0.0000 H       1  UNL1        0.0690
     31 H           2.3692    1.3271    0.0000 H       1  UNL1        0.0663
     32 H           5.2965    3.0474    0.0000 H       1  UNL1        0.0658
     33 H           1.5587   -1.6054    0.0000 H       1  UNL1        0.0625
     34 H           1.5458   -3.2712    0.0000 H       1  UNL1        0.0655
     35 H           4.1184   -5.2015    0.0000 H       1  UNL1        0.1166
     36 H           4.8335   -4.7812    0.0000 H       1  UNL1        0.1166
     37 H           4.3506    4.5940    0.0000 H       1  UNL1        0.2923
     38 H           2.6200    4.2293    0.0000 H       1  UNL1        0.0660
     39 H           1.9928    4.8421    0.0000 H       1  UNL1        0.0660
     40 H           1.3800    4.2149    0.0000 H       1  UNL1        0.0660
@<TRIPOS>UNITY_ATOM_ATTR
5 1
charge 1
@<TRIPOS>BOND
     1     1    15    1
     2     1    23    1
     3     2    19    1
     4     2    23    1
     5     3    20    1
     6     3    24    1
     7     4    21    1
     8     4    37    1
     9     5     6    1
    10     5     7   ar
    11     5    12   ar
    12     6     8    1
    13     6    25    1
    14     6    26    1
    15     7     9    1
    16     7    14   ar
    17     8    10    1
    18     8    27    1
    19     8    28    1
    20     9    10   ar
    21     9    16   ar
    22    10    17   ar
    23    11    12   ar
    24    11    13   ar
    25    11    15   ar
    26    12    29    1
    27    13    14   ar
    28    13    18   ar
    29    14    30    1
    30    15    19   ar
    31    16    20   ar
    32    16    31    1
    33    17    21   ar
    34    17    32    1
    35    18    22   ar
    36    18    33    1
    37    19    22   ar
    38    20    21   ar
    39    22    34    1
    40    23    35    1
    41    23    36    1
    42    24    38    1
    43    24    39    1
    44    24    40    1
