@<TRIPOS>MOLECULE
IMPHY007667
 61 64 0 0 0
SMALL
GASTEIGER

@<TRIPOS>ATOM
      1 O           7.9288   -1.9509    0.0000 O.3     1  UNL1       -0.3801
      2 O           7.0628    1.5491    0.0000 O.3     1  UNL1       -0.4608
      3 O           9.1857   -2.2062    0.0000 O.2     1  UNL1       -0.2943
      4 O           2.5357   -3.0032    0.0000 O.3     1  UNL1       -0.3915
      5 O           8.5179    2.0486    0.0000 O.2     1  UNL1       -0.2974
      6 O           5.3307    1.5491    0.0000 O.2     1  UNL1       -0.2512
      7 C           7.9288    0.0491    0.0000 C.3     1  UNL1        0.0506
      8 C           7.9288   -0.9509    0.0000 C.3     1  UNL1        0.1362
      9 C           7.0628   -1.4509    0.0000 C.3     1  UNL1        0.0026
     10 C           6.1968   -0.9509    0.0000 C.3     1  UNL1       -0.0224
     11 C           5.2868   -1.4578    0.0000 C.3     1  UNL1       -0.0076
     12 C           7.0628    0.5491    0.0000 C.3     1  UNL1        0.1124
     13 C           6.1968    0.0491    0.0000 C.3     1  UNL1       -0.0110
     14 C           8.8750    0.3538    0.0000 C.3     1  UNL1        0.0358
     15 C           7.0789   -2.4924    0.0000 C.3     1  UNL1       -0.0283
     16 C           8.8750   -1.2556    0.0000 C.2     1  UNL1        0.1662
     17 C           9.4586   -0.4509    0.0000 C.3     1  UNL1        0.0190
     18 C           5.2787   -2.4994    0.0000 C.2     1  UNL1       -0.0648
     19 C           4.3599   -0.8937    0.0000 C.3     1  UNL1       -0.0413
     20 C           7.9288    1.0491    0.0000 C.3     1  UNL1       -0.0524
     21 C           6.1808   -3.0202    0.0000 C.2     1  UNL1       -0.0838
     22 C           5.2945   -0.4578    0.0000 C.3     1  UNL1       -0.0556
     23 C           4.3433   -3.0491    0.0000 C.3     1  UNL1       -0.0051
     24 C           3.4120   -1.4216    0.0000 C.3     1  UNL1       -0.0258
     25 C           9.1857    1.3043    0.0000 C.2     1  UNL1        0.1345
     26 C           3.4037   -2.5066    0.0000 C.3     1  UNL1        0.0590
     27 C          10.1642    1.5106    0.0000 C.3     1  UNL1       -0.0058
     28 C           6.1968    2.0491    0.0000 C.2     1  UNL1        0.3042
     29 C           6.1968    3.0491    0.0000 C.3     1  UNL1        0.0332
     30 H           7.8022   -1.8702    0.0000 H       1  UNL1        0.0339
     31 H           6.9329   -0.5259    0.0000 H       1  UNL1        0.0314
     32 H           6.5259    0.8591    0.0000 H       1  UNL1        0.0741
     33 H           5.9847    0.6317    0.0000 H       1  UNL1        0.0304
     34 H           5.5862   -0.0586    0.0000 H       1  UNL1        0.0304
     35 H           9.4875    0.4500    0.0000 H       1  UNL1        0.0389
     36 H           7.2969   -3.0728    0.0000 H       1  UNL1        0.0311
     37 H           7.6880   -2.3769    0.0000 H       1  UNL1        0.0311
     38 H           9.9195   -0.8656    0.0000 H       1  UNL1        0.0350
     39 H           9.9195   -0.0362    0.0000 H       1  UNL1        0.0350
     40 H           4.7681   -0.4270    0.0000 H       1  UNL1        0.0274
     41 H           3.9700   -0.4116    0.0000 H       1  UNL1        0.0274
     42 H           8.5488    1.0491    0.0000 H       1  UNL1        0.0237
     43 H           7.9288    1.6691    0.0000 H       1  UNL1        0.0237
     44 H           7.3088    1.0491    0.0000 H       1  UNL1        0.0237
     45 H           6.1832   -3.6402    0.0000 H       1  UNL1        0.0572
     46 H           5.9145   -0.4626    0.0000 H       1  UNL1        0.0238
     47 H           5.2993    0.1622    0.0000 H       1  UNL1        0.0238
     48 H           4.6745   -0.4530    0.0000 H       1  UNL1        0.0238
     49 H           3.9460   -3.5251    0.0000 H       1  UNL1        0.0335
     50 H           4.7443   -3.5220    0.0000 H       1  UNL1        0.0335
     51 H           8.4658   -2.2609    0.0000 H       1  UNL1        0.2108
     52 H           3.2075   -0.8363    0.0000 H       1  UNL1        0.0290
     53 H           2.8004   -1.5230    0.0000 H       1  UNL1        0.0290
     54 H           2.8686   -2.1935    0.0000 H       1  UNL1        0.0596
     55 H          10.2921    0.9039    0.0000 H       1  UNL1        0.0306
     56 H          10.7709    1.6384    0.0000 H       1  UNL1        0.0306
     57 H          10.0364    2.1172    0.0000 H       1  UNL1        0.0306
     58 H           2.0000   -2.6912    0.0000 H       1  UNL1        0.2098
     59 H           6.8168    3.0491    0.0000 H       1  UNL1        0.0342
     60 H           6.1968    3.6691    0.0000 H       1  UNL1        0.0342
     61 H           5.5768    3.0491    0.0000 H       1  UNL1        0.0342
@<TRIPOS>BOND
     1     8     1    1
     2     1    51    1
     3    12     2    1
     4     2    28    1
     5     3    16    2
     6    26     4    1
     7     4    58    1
     8     5    25    2
     9     6    28    2
    10     7     8    1
    11     7    12    1
    12     7    14    1
    13     7    20    1
    14     8     9    1
    15     8    16    1
    16     9    10    1
    17     9    15    1
    18     9    30    1
    19    10    11    1
    20    10    13    1
    21    10    31    1
    22    11    18    1
    23    11    19    1
    24    11    22    1
    25    12    13    1
    26    12    32    1
    27    13    33    1
    28    13    34    1
    29    14    17    1
    30    14    25    1
    31    14    35    1
    32    15    21    1
    33    15    36    1
    34    15    37    1
    35    16    17    1
    36    17    38    1
    37    17    39    1
    38    18    21    2
    39    18    23    1
    40    19    24    1
    41    19    40    1
    42    19    41    1
    43    20    42    1
    44    20    43    1
    45    20    44    1
    46    21    45    1
    47    22    46    1
    48    22    47    1
    49    22    48    1
    50    23    26    1
    51    23    49    1
    52    23    50    1
    53    24    26    1
    54    24    52    1
    55    24    53    1
    56    25    27    1
    57    26    54    1
    58    27    55    1
    59    27    56    1
    60    27    57    1
    61    28    29    1
    62    29    59    1
    63    29    60    1
    64    29    61    1
