@<TRIPOS>MOLECULE
IMPHY013723
 43 44 0 0 0
SMALL
GASTEIGER

@<TRIPOS>ATOM
      1 O           3.8319    2.2862    0.0000 O.3     1  UNL1       -0.3879
      2 O           2.9270    0.5021    0.0000 O.3     1  UNL1       -0.3908
      3 C           4.6588    0.4719    0.0000 C.3     1  UNL1        0.0257
      4 C           6.0315    1.0639    0.0000 C.3     1  UNL1       -0.0303
      5 C           6.2903    2.0298    0.0000 C.3     1  UNL1       -0.0115
      6 C           4.3167    1.4116    0.0000 C.3     1  UNL1        0.0741
      7 C           5.5537    3.0125    0.0000 C.3     1  UNL1       -0.0441
      8 C           7.4304    0.5551    0.0000 C.3     1  UNL1       -0.0492
      9 C           7.6892    1.5210    0.0000 C.3     1  UNL1       -0.0473
     10 C           3.7841   -0.0129    0.0000 C.3     1  UNL1        0.0669
     11 C           4.8496   -0.5097    0.0000 C.3     1  UNL1       -0.0543
     12 C           3.3351    1.2208    0.0000 C.3     1  UNL1       -0.0352
     13 C           3.7667   -1.0128    0.0000 C.3     1  UNL1       -0.0078
     14 C           2.8921   -1.4976    0.0000 C.2     1  UNL1       -0.0828
     15 C           2.8746   -2.4974    0.0000 C.2     1  UNL1       -0.0795
     16 C           2.0000   -2.9822    0.0000 C.3     1  UNL1       -0.0440
     17 C           3.7318   -3.0125    0.0000 C.3     1  UNL1       -0.0440
     18 H           6.0496    0.4442    0.0000 H       1  UNL1        0.0308
     19 H           6.2763    1.4100    0.0000 H       1  UNL1        0.0329
     20 H           5.8715    3.5448    0.0000 H       1  UNL1        0.0272
     21 H           4.9405    3.1044    0.0000 H       1  UNL1        0.0272
     22 H           7.2355   -0.0335    0.0000 H       1  UNL1        0.0268
     23 H           8.0244    0.3773    0.0000 H       1  UNL1        0.0268
     24 H           8.2832    1.3432    0.0000 H       1  UNL1        0.0269
     25 H           7.8842    2.1096    0.0000 H       1  UNL1        0.0269
     26 H           3.2419   -0.3135    0.0000 H       1  UNL1        0.0603
     27 H           4.2410   -0.6280    0.0000 H       1  UNL1        0.0237
     28 H           4.9679   -1.1183    0.0000 H       1  UNL1        0.0237
     29 H           5.4582   -0.3914    0.0000 H       1  UNL1        0.0237
     30 H           3.2168    1.8294    0.0000 H       1  UNL1        0.0257
     31 H           2.7265    1.1025    0.0000 H       1  UNL1        0.0257
     32 H           3.4534    0.6122    0.0000 H       1  UNL1        0.0257
     33 H           4.1513    2.8176    0.0000 H       1  UNL1        0.2102
     34 H           3.9685   -1.5990    0.0000 H       1  UNL1        0.0333
     35 H           4.3791   -0.9158    0.0000 H       1  UNL1        0.0333
     36 H           2.3847    0.2015    0.0000 H       1  UNL1        0.2098
     37 H           2.3606   -1.1782    0.0000 H       1  UNL1        0.0572
     38 H           1.6994   -2.4400    0.0000 H       1  UNL1        0.0274
     39 H           1.4577   -3.2828    0.0000 H       1  UNL1        0.0274
     40 H           2.3006   -3.5245    0.0000 H       1  UNL1        0.0274
     41 H           3.4125   -3.5439    0.0000 H       1  UNL1        0.0274
     42 H           4.2632   -3.3318    0.0000 H       1  UNL1        0.0274
     43 H           4.0511   -2.4810    0.0000 H       1  UNL1        0.0274
@<TRIPOS>BOND
     1     6     1    1
     2     1    33    1
     3    10     2    1
     4     2    36    1
     5     3     4    1
     6     3     6    1
     7     3    10    1
     8     3    11    1
     9     4     7    1
    10     4     8    1
    11     4    18    1
    12     5     6    1
    13     5     7    1
    14     5     9    1
    15     5    19    1
    16     6    12    1
    17     7    20    1
    18     7    21    1
    19     8     9    1
    20     8    22    1
    21     8    23    1
    22     9    24    1
    23     9    25    1
    24    10    13    1
    25    10    26    1
    26    11    27    1
    27    11    28    1
    28    11    29    1
    29    12    30    1
    30    12    31    1
    31    12    32    1
    32    13    14    1
    33    13    34    1
    34    13    35    1
    35    14    15    2
    36    14    37    1
    37    15    16    1
    38    15    17    1
    39    16    38    1
    40    16    39    1
    41    16    40    1
    42    17    41    1
    43    17    42    1
    44    17    43    1
