@<TRIPOS>MOLECULE
IMPHY000963
 126 132 0 0 0
SMALL
GASTEIGER

@<TRIPOS>ATOM
      1 O           6.8671   -4.4673    0.0000 O.3     1  UNL1       -0.3448
      2 O           8.6575    3.6364    0.0000 O.3     1  UNL1       -0.3915
      3 O           9.2738   -3.7975    0.0000 O.3     1  UNL1       -0.3481
      4 O           7.7597    4.5746    0.0000 O.3     1  UNL1       -0.3912
      5 O           5.1350   -4.4673    0.0000 O.3     1  UNL1       -0.3405
      6 O          10.7670   -2.9199    0.0000 O.3     1  UNL1       -0.3405
      7 O           6.8671   -6.4673    0.0000 O.3     1  UNL1       -0.3841
      8 O          10.2871   -5.5218    0.0000 O.3     1  UNL1       -0.3841
      9 O           5.1350   -7.4673    0.0000 O.3     1  UNL1       -0.3864
     10 O           3.4030   -6.4673    0.0000 O.3     1  UNL1       -0.3865
     11 O          12.2870   -5.5064    0.0000 O.3     1  UNL1       -0.3864
     12 O          13.2736   -3.7667    0.0000 O.3     1  UNL1       -0.3865
     13 O           2.5369   -4.9673    0.0000 O.3     1  UNL1       -0.3924
     14 O          13.2603   -2.0347    0.0000 O.3     1  UNL1       -0.3924
     15 C           6.8948   -0.3982    0.0000 C.3     1  UNL1       -0.0194
     16 C           6.8910   -1.3982    0.0000 C.3     1  UNL1       -0.0192
     17 C           6.0264   -0.8948    0.0000 C.3     1  UNL1       -0.0401
     18 C           7.7628    0.0985    0.0000 C.3     1  UNL1       -0.0288
     19 C           7.7551   -1.9015    0.0000 C.3     1  UNL1       -0.0250
     20 C           7.7829    1.1399    0.0000 C.3     1  UNL1       -0.0206
     21 C           5.9868    0.1122    0.0000 C.3     1  UNL1       -0.0460
     22 C           6.8869    1.6711    0.0000 C.3     1  UNL1       -0.0208
     23 C           5.9790   -1.9015    0.0000 C.3     1  UNL1       -0.0442
     24 C           8.6269   -0.4048    0.0000 C.3     1  UNL1       -0.0489
     25 C           8.6230   -1.4048    0.0000 C.3     1  UNL1       -0.0488
     26 C           5.9828    1.1538    0.0000 C.3     1  UNL1       -0.0462
     27 C           7.7671   -2.9430    0.0000 C.3     1  UNL1        0.0210
     28 C           7.1165    2.6808    0.0000 C.3     1  UNL1       -0.0041
     29 C           8.5586    1.8259    0.0000 C.3     1  UNL1       -0.0204
     30 C           5.9670   -2.9430    0.0000 C.3     1  UNL1       -0.0254
     31 C           6.8671   -3.4673    0.0000 C.3     1  UNL1        0.0695
     32 C           8.1475    2.7763    0.0000 C.3     1  UNL1        0.0594
     33 C           8.6430    0.6299    0.0000 C.3     1  UNL1       -0.0587
     34 C           6.0267    2.1811    0.0000 C.3     1  UNL1       -0.0587
     35 C           8.7671   -2.9354    0.0000 C.3     1  UNL1        0.0588
     36 C           6.4573    3.4328    0.0000 C.3     1  UNL1       -0.0118
     37 C           8.2738   -3.8052    0.0000 C.3     1  UNL1       -0.0548
     38 C           6.7789    4.3797    0.0000 C.3     1  UNL1        0.0616
     39 C           5.4765    3.2379    0.0000 C.3     1  UNL1       -0.0597
     40 C           6.0010   -4.9673    0.0000 C.3     1  UNL1        0.1882
     41 C           6.1197    5.1316    0.0000 C.3     1  UNL1       -0.0081
     42 C          10.2737   -3.7898    0.0000 C.3     1  UNL1        0.1879
     43 C           6.0010   -5.9673    0.0000 C.3     1  UNL1        0.1341
     44 C          10.7804   -4.6519    0.0000 C.3     1  UNL1        0.1341
     45 C           6.4414    6.0785    0.0000 C.2     1  UNL1       -0.0829
     46 C           5.1350   -6.4673    0.0000 C.3     1  UNL1        0.1141
     47 C           4.2690   -4.9673    0.0000 C.3     1  UNL1        0.1130
     48 C           4.2690   -5.9673    0.0000 C.3     1  UNL1        0.1119
     49 C          11.7804   -4.6442    0.0000 C.3     1  UNL1        0.1141
     50 C          11.7670   -2.9122    0.0000 C.3     1  UNL1        0.1130
     51 C          12.2737   -3.7744    0.0000 C.3     1  UNL1        0.1119
     52 C           5.7822    6.8305    0.0000 C.2     1  UNL1       -0.0795
     53 C           3.4030   -4.4673    0.0000 C.3     1  UNL1        0.0730
     54 C          12.2603   -2.0424    0.0000 C.3     1  UNL1        0.0730
     55 C           6.1038    7.7773    0.0000 C.3     1  UNL1       -0.0440
     56 C           4.8013    6.6356    0.0000 C.3     1  UNL1       -0.0440
     57 H           5.6297   -0.4183    0.0000 H       1  UNL1        0.0276
     58 H           5.6261   -1.3683    0.0000 H       1  UNL1        0.0276
     59 H           8.5038    0.5150    0.0000 H       1  UNL1        0.0312
     60 H           8.4928   -2.3237    0.0000 H       1  UNL1        0.0313
     61 H           5.3755    0.2159    0.0000 H       1  UNL1        0.0271
     62 H           5.7800   -0.4723    0.0000 H       1  UNL1        0.0271
     63 H           5.7768   -1.3154    0.0000 H       1  UNL1        0.0272
     64 H           5.3670   -2.0005    0.0000 H       1  UNL1        0.0272
     65 H           9.2370   -0.5149    0.0000 H       1  UNL1        0.0268
     66 H           8.8412    0.1769    0.0000 H       1  UNL1        0.0268
     67 H           8.8328   -1.9883    0.0000 H       1  UNL1        0.0268
     68 H           9.2340   -1.2995    0.0000 H       1  UNL1        0.0268
     69 H           5.7715    1.7367    0.0000 H       1  UNL1        0.0271
     70 H           5.3724    1.0454    0.0000 H       1  UNL1        0.0271
     71 H           7.4313    3.4704    0.0000 H       1  UNL1        0.0334
     72 H           8.9182    1.3208    0.0000 H       1  UNL1        0.0296
     73 H           9.0986    2.1304    0.0000 H       1  UNL1        0.0296
     74 H           5.3574   -2.8299    0.0000 H       1  UNL1        0.0290
     75 H           5.7512   -3.5243    0.0000 H       1  UNL1        0.0290
     76 H           7.4046   -3.7763    0.0000 H       1  UNL1        0.0603
     77 H           8.7663    2.7369    0.0000 H       1  UNL1        0.0596
     78 H           8.3269    0.0966    0.0000 H       1  UNL1        0.0235
     79 H           9.1764    0.3138    0.0000 H       1  UNL1        0.0235
     80 H           8.9592    1.1633    0.0000 H       1  UNL1        0.0235
     81 H           6.3429    2.7144    0.0000 H       1  UNL1        0.0235
     82 H           5.4934    2.4973    0.0000 H       1  UNL1        0.0235
     83 H           5.7105    1.6478    0.0000 H       1  UNL1        0.0235
     84 H           9.3480   -2.7188    0.0000 H       1  UNL1        0.0567
     85 H           8.6547   -2.3256    0.0000 H       1  UNL1        0.0567
     86 H           6.2579    2.8457    0.0000 H       1  UNL1        0.0327
     87 H           7.7393   -4.1193    0.0000 H       1  UNL1        0.0237
     88 H           8.5879   -4.3397    0.0000 H       1  UNL1        0.0237
     89 H           8.8083   -3.4911    0.0000 H       1  UNL1        0.0237
     90 H           9.2775    3.6293    0.0000 H       1  UNL1        0.2098
     91 H           6.9783    4.9667    0.0000 H       1  UNL1        0.0599
     92 H           5.3556    3.8460    0.0000 H       1  UNL1        0.0233
     93 H           4.8683    3.1171    0.0000 H       1  UNL1        0.0233
     94 H           5.5973    2.6298    0.0000 H       1  UNL1        0.0233
     95 H           6.0010   -4.3473    0.0000 H       1  UNL1        0.0937
     96 H           5.5762    5.4300    0.0000 H       1  UNL1        0.0332
     97 H           5.7316    4.6482    0.0000 H       1  UNL1        0.0332
     98 H           9.9596   -3.2553    0.0000 H       1  UNL1        0.0937
     99 H           7.9592    5.1616    0.0000 H       1  UNL1        0.2098
    100 H           6.5380   -5.6573    0.0000 H       1  UNL1        0.0671
    101 H          11.0945   -5.1865    0.0000 H       1  UNL1        0.0671
    102 H           7.0495    6.1993    0.0000 H       1  UNL1        0.0572
    103 H           5.6720   -6.7773    0.0000 H       1  UNL1        0.0648
    104 H           4.2690   -4.3473    0.0000 H       1  UNL1        0.0647
    105 H           3.7320   -5.6573    0.0000 H       1  UNL1        0.0647
    106 H          12.4003   -4.6394    0.0000 H       1  UNL1        0.0648
    107 H           6.8671   -7.0873    0.0000 H       1  UNL1        0.2101
    108 H          11.4529   -2.3777    0.0000 H       1  UNL1        0.0647
    109 H          12.5795   -3.2351    0.0000 H       1  UNL1        0.0647
    110 H           3.8015   -3.9924    0.0000 H       1  UNL1        0.0584
    111 H           3.0044   -3.9924    0.0000 H       1  UNL1        0.0584
    112 H          10.6012   -6.0563    0.0000 H       1  UNL1        0.2101
    113 H           4.5981   -7.7773    0.0000 H       1  UNL1        0.2100
    114 H           3.4030   -7.0873    0.0000 H       1  UNL1        0.2100
    115 H          12.3633   -1.4310    0.0000 H       1  UNL1        0.0584
    116 H          11.6761   -1.8348    0.0000 H       1  UNL1        0.0584
    117 H          12.9070   -5.5016    0.0000 H       1  UNL1        0.2100
    118 H           6.6908    7.5779    0.0000 H       1  UNL1        0.0274
    119 H           6.3032    8.3644    0.0000 H       1  UNL1        0.0274
    120 H           5.5167    7.9768    0.0000 H       1  UNL1        0.0274
    121 H           4.6805    7.2437    0.0000 H       1  UNL1        0.0274
    122 H           4.1932    6.5148    0.0000 H       1  UNL1        0.0274
    123 H           4.9222    6.0275    0.0000 H       1  UNL1        0.0274
    124 H          13.5878   -4.3012    0.0000 H       1  UNL1        0.2100
    125 H           2.0000   -4.6573    0.0000 H       1  UNL1        0.2095
    126 H          13.5661   -1.4954    0.0000 H       1  UNL1        0.2095
@<TRIPOS>BOND
     1    31     1    1
     2    40     1    1
     3    32     2    1
     4     2    90    1
     5     3    35    1
     6    42     3    1
     7    38     4    1
     8     4    99    1
     9     5    40    1
    10     5    47    1
    11     6    42    1
    12     6    50    1
    13    43     7    1
    14     7   107    1
    15    44     8    1
    16     8   112    1
    17    46     9    1
    18     9   113    1
    19    48    10    1
    20    10   114    1
    21    49    11    1
    22    11   117    1
    23    51    12    1
    24    12   124    1
    25    13    53    1
    26    13   125    1
    27    14    54    1
    28    14   126    1
    29    15    16    1
    30    15    17    1
    31    15    18    1
    32    15    21    1
    33    16    17    1
    34    16    19    1
    35    16    23    1
    36    17    57    1
    37    17    58    1
    38    18    20    1
    39    18    24    1
    40    18    59    1
    41    19    25    1
    42    19    27    1
    43    19    60    1
    44    20    22    1
    45    20    29    1
    46    20    33    1
    47    21    26    1
    48    21    61    1
    49    21    62    1
    50    22    26    1
    51    22    28    1
    52    22    34    1
    53    23    30    1
    54    23    63    1
    55    23    64    1
    56    24    25    1
    57    24    65    1
    58    24    66    1
    59    25    67    1
    60    25    68    1
    61    26    69    1
    62    26    70    1
    63    27    31    1
    64    27    35    1
    65    27    37    1
    66    28    32    1
    67    28    36    1
    68    28    71    1
    69    29    32    1
    70    29    72    1
    71    29    73    1
    72    30    31    1
    73    30    74    1
    74    30    75    1
    75    31    76    1
    76    32    77    1
    77    33    78    1
    78    33    79    1
    79    33    80    1
    80    34    81    1
    81    34    82    1
    82    34    83    1
    83    35    84    1
    84    35    85    1
    85    36    38    1
    86    36    39    1
    87    36    86    1
    88    37    87    1
    89    37    88    1
    90    37    89    1
    91    38    41    1
    92    38    91    1
    93    39    92    1
    94    39    93    1
    95    39    94    1
    96    40    43    1
    97    40    95    1
    98    41    45    1
    99    41    96    1
   100    41    97    1
   101    42    44    1
   102    42    98    1
   103    43    46    1
   104    43   100    1
   105    44    49    1
   106    44   101    1
   107    45    52    2
   108    45   102    1
   109    46    48    1
   110    46   103    1
   111    47    48    1
   112    47    53    1
   113    47   104    1
   114    48   105    1
   115    49    51    1
   116    49   106    1
   117    50    51    1
   118    50    54    1
   119    50   108    1
   120    51   109    1
   121    52    55    1
   122    52    56    1
   123    53   110    1
   124    53   111    1
   125    54   115    1
   126    54   116    1
   127    55   118    1
   128    55   119    1
   129    55   120    1
   130    56   121    1
   131    56   122    1
   132    56   123    1
