@<TRIPOS>MOLECULE
IMPHY007936
 166 173 0 0 0
SMALL
GASTEIGER

@<TRIPOS>ATOM
      1 O          22.1114    2.0079    0.0000 O.3     1  UNL1       -0.3876
      2 O          21.2319   -1.4887    0.0000 O.3     1  UNL1       -0.4569
      3 O          19.5037   -0.4820    0.0000 O.3     1  UNL1       -0.4575
      4 O          16.7224    3.0810    0.0000 O.3     1  UNL1       -0.3477
      5 O          23.5806   -1.9488    0.0000 O.2     1  UNL1       -0.2974
      6 O          22.7286   -2.3605    0.0000 O.2     1  UNL1       -0.2508
      7 O          20.3640   -1.9854    0.0000 O.2     1  UNL1       -0.2512
      8 O          14.9904    3.0810    0.0000 O.3     1  UNL1       -0.3456
      9 O          14.9904    0.0810    0.0000 O.3     1  UNL1       -0.3770
     10 O          13.2583    1.0810    0.0000 O.3     1  UNL1       -0.3429
     11 O          12.3923    2.5810    0.0000 O.3     1  UNL1       -0.3456
     12 O           9.7942    1.0810    0.0000 O.3     1  UNL1       -0.3770
     13 O           9.7942    3.0810    0.0000 O.3     1  UNL1       -0.3429
     14 O           8.0622    3.0810    0.0000 O.3     1  UNL1       -0.3456
     15 O           6.3301    1.0810    0.0000 O.3     1  UNL1       -0.3403
     16 O           8.0622    0.0810    0.0000 O.3     1  UNL1       -0.3770
     17 O           5.4641    2.5810    0.0000 O.3     1  UNL1       -0.3431
     18 O           4.5981    0.0810    0.0000 O.3     1  UNL1       -0.3841
     19 O           2.8660    1.0810    0.0000 O.3     1  UNL1       -0.3744
     20 O           2.8660    3.0810    0.0000 O.3     1  UNL1       -0.3866
     21 C          22.1037    0.0079    0.0000 C.3     1  UNL1        0.0469
     22 C          22.1076    1.0079    0.0000 C.3     1  UNL1        0.0791
     23 C          21.2435    1.5113    0.0000 C.3     1  UNL1       -0.0010
     24 C          20.3755    1.0146    0.0000 C.3     1  UNL1        0.0145
     25 C          21.2358   -0.4887    0.0000 C.3     1  UNL1        0.1486
     26 C          19.4675    1.5250    0.0000 C.3     1  UNL1       -0.0043
     27 C          20.3717    0.0146    0.0000 C.3     1  UNL1        0.1443
     28 C          23.0487   -0.3004    0.0000 C.3     1  UNL1        0.0288
     29 C          23.0550    1.3090    0.0000 C.3     1  UNL1       -0.0224
     30 C          23.6355    0.5020    0.0000 C.3     1  UNL1       -0.0402
     31 C          21.2635    2.5527    0.0000 C.3     1  UNL1       -0.0286
     32 C          22.0999   -0.9921    0.0000 C.3     1  UNL1       -0.0527
     33 C          19.4635    2.5666    0.0000 C.2     1  UNL1       -0.0647
     34 C          18.5385    0.9645    0.0000 C.3     1  UNL1       -0.0412
     35 C          20.3676    3.0839    0.0000 C.2     1  UNL1       -0.0838
     36 C          19.4713    0.5250    0.0000 C.3     1  UNL1       -0.0555
     37 C          18.5302    3.1199    0.0000 C.3     1  UNL1       -0.0047
     38 C          23.7905   -0.9711    0.0000 C.2     1  UNL1        0.1341
     39 C          17.5926    1.4961    0.0000 C.3     1  UNL1       -0.0254
     40 C          17.5885    2.5810    0.0000 C.3     1  UNL1        0.0654
     41 C          24.7422   -0.6641    0.0000 C.3     1  UNL1       -0.0058
     42 C          21.7286   -2.3567    0.0000 C.2     1  UNL1        0.3077
     43 C          19.4999   -1.4820    0.0000 C.2     1  UNL1        0.3043
     44 C          21.2252   -3.2207    0.0000 C.3     1  UNL1        0.0473
     45 C          15.8564    2.5810    0.0000 C.3     1  UNL1        0.1624
     46 C          18.6319   -1.9787    0.0000 C.3     1  UNL1        0.0332
     47 C          20.2253   -3.2169    0.0000 C.3     1  UNL1       -0.0367
     48 C          15.8564    1.5810    0.0000 C.3     1  UNL1        0.0272
     49 C          14.9904    1.0810    0.0000 C.3     1  UNL1        0.0915
     50 C          14.1244    2.5810    0.0000 C.3     1  UNL1        0.0875
     51 C          14.1244    1.5810    0.0000 C.3     1  UNL1        0.1137
     52 C          19.7220   -4.0810    0.0000 C.3     1  UNL1       -0.0622
     53 C          19.7286   -2.3490    0.0000 C.3     1  UNL1       -0.0622
     54 C          13.2583    3.0810    0.0000 C.3     1  UNL1       -0.0361
     55 C          12.3923    1.5810    0.0000 C.3     1  UNL1        0.1626
     56 C          15.8564   -0.4190    0.0000 C.3     1  UNL1        0.0369
     57 C          11.5263    1.0810    0.0000 C.3     1  UNL1        0.0272
     58 C          10.6603    1.5810    0.0000 C.3     1  UNL1        0.0915
     59 C          11.5263    3.0810    0.0000 C.3     1  UNL1        0.0875
     60 C          10.6603    2.5810    0.0000 C.3     1  UNL1        0.1137
     61 C          11.5263    4.0810    0.0000 C.3     1  UNL1       -0.0361
     62 C           8.9282    2.5810    0.0000 C.3     1  UNL1        0.1626
     63 C           9.7942    0.0810    0.0000 C.3     1  UNL1        0.0369
     64 C           8.9282    1.5810    0.0000 C.3     1  UNL1        0.0272
     65 C           8.0622    1.0810    0.0000 C.3     1  UNL1        0.0915
     66 C           7.1962    1.5810    0.0000 C.3     1  UNL1        0.1138
     67 C           7.1962    2.5810    0.0000 C.3     1  UNL1        0.0875
     68 C           6.3301    3.0810    0.0000 C.3     1  UNL1       -0.0361
     69 C           5.4641    1.5810    0.0000 C.3     1  UNL1        0.1883
     70 C           4.5981    1.0810    0.0000 C.3     1  UNL1        0.1344
     71 C           3.7320    1.5810    0.0000 C.3     1  UNL1        0.1170
     72 C           3.7320    2.5810    0.0000 C.3     1  UNL1        0.1097
     73 C           4.5981    3.0810    0.0000 C.3     1  UNL1        0.0873
     74 C           7.1962   -0.4190    0.0000 C.3     1  UNL1        0.0369
     75 C           4.5981    4.0810    0.0000 C.3     1  UNL1       -0.0361
     76 C           2.0000    1.5810    0.0000 C.3     1  UNL1        0.0370
     77 H          21.9845    1.9277    0.0000 H       1  UNL1        0.0336
     78 H          21.1100    0.5868    0.0000 H       1  UNL1        0.0350
     79 H          20.6976   -0.7966    0.0000 H       1  UNL1        0.0778
     80 H          19.8359    0.3267    0.0000 H       1  UNL1        0.0775
     81 H          22.7378   -0.8368    0.0000 H       1  UNL1        0.0385
     82 H          23.5935    1.6162    0.0000 H       1  UNL1        0.0293
     83 H          22.8061    1.8769    0.0000 H       1  UNL1        0.0293
     84 H          24.0947    0.0855    0.0000 H       1  UNL1        0.0273
     85 H          24.0979    0.9150    0.0000 H       1  UNL1        0.0273
     86 H          21.8722    2.4349    0.0000 H       1  UNL1        0.0311
     87 H          21.4838    3.1323    0.0000 H       1  UNL1        0.0311
     88 H          21.4799   -0.9897    0.0000 H       1  UNL1        0.0237
     89 H          22.0975   -1.6120    0.0000 H       1  UNL1        0.0237
     90 H          22.7199   -0.9944    0.0000 H       1  UNL1        0.0237
     91 H          18.1467    0.4839    0.0000 H       1  UNL1        0.0274
     92 H          18.9449    0.4962    0.0000 H       1  UNL1        0.0274
     93 H          20.3723    3.7039    0.0000 H       1  UNL1        0.0572
     94 H          22.6495    2.3159    0.0000 H       1  UNL1        0.2102
     95 H          18.8513    0.5226    0.0000 H       1  UNL1        0.0238
     96 H          19.4737   -0.0950    0.0000 H       1  UNL1        0.0238
     97 H          20.0913    0.5274    0.0000 H       1  UNL1        0.0238
     98 H          18.9330    3.5912    0.0000 H       1  UNL1        0.0335
     99 H          18.1347    3.5974    0.0000 H       1  UNL1        0.0335
    100 H          16.9814    1.5998    0.0000 H       1  UNL1        0.0290
    101 H          17.3858    0.9116    0.0000 H       1  UNL1        0.0290
    102 H          17.0521    2.2700    0.0000 H       1  UNL1        0.0600
    103 H          24.9325   -1.2542    0.0000 H       1  UNL1        0.0306
    104 H          25.3322   -0.4738    0.0000 H       1  UNL1        0.0306
    105 H          24.5518   -0.0741    0.0000 H       1  UNL1        0.0306
    106 H          21.1152   -3.8309    0.0000 H       1  UNL1        0.0380
    107 H          21.8070   -3.4350    0.0000 H       1  UNL1        0.0380
    108 H          16.5925    2.1560    0.0000 H       1  UNL1        0.0910
    109 H          18.3240   -1.4406    0.0000 H       1  UNL1        0.0342
    110 H          18.0938   -2.2866    0.0000 H       1  UNL1        0.0342
    111 H          18.9399   -2.5168    0.0000 H       1  UNL1        0.0342
    112 H          20.5333   -3.7551    0.0000 H       1  UNL1        0.0301
    113 H          16.0685    0.9984    0.0000 H       1  UNL1        0.0340
    114 H          16.4670    1.6887    0.0000 H       1  UNL1        0.0340
    115 H          15.7265    0.6560    0.0000 H       1  UNL1        0.0624
    116 H          14.1244    3.4310    0.0000 H       1  UNL1        0.0621
    117 H          13.3882    2.0060    0.0000 H       1  UNL1        0.0649
    118 H          19.1863   -3.7690    0.0000 H       1  UNL1        0.0232
    119 H          19.4099   -4.6168    0.0000 H       1  UNL1        0.0232
    120 H          20.2577   -4.3931    0.0000 H       1  UNL1        0.0232
    121 H          20.2667   -2.0410    0.0000 H       1  UNL1        0.0232
    122 H          19.4206   -1.8109    0.0000 H       1  UNL1        0.0232
    123 H          19.1905   -2.6569    0.0000 H       1  UNL1        0.0232
    124 H          13.5683    3.6180    0.0000 H       1  UNL1        0.0255
    125 H          12.7214    3.3910    0.0000 H       1  UNL1        0.0255
    126 H          12.9483    2.5441    0.0000 H       1  UNL1        0.0255
    127 H          12.3923    0.7310    0.0000 H       1  UNL1        0.0910
    128 H          15.5464   -0.9559    0.0000 H       1  UNL1        0.0524
    129 H          16.3933   -0.7290    0.0000 H       1  UNL1        0.0524
    130 H          16.1664    0.1180    0.0000 H       1  UNL1        0.0524
    131 H          11.1278    0.6061    0.0000 H       1  UNL1        0.0340
    132 H          11.9248    0.6061    0.0000 H       1  UNL1        0.0340
    133 H          10.6603    0.7310    0.0000 H       1  UNL1        0.0624
    134 H          12.2624    3.5060    0.0000 H       1  UNL1        0.0621
    135 H          10.6603    3.4310    0.0000 H       1  UNL1        0.0649
    136 H          12.1463    4.0810    0.0000 H       1  UNL1        0.0255
    137 H          11.5263    4.7010    0.0000 H       1  UNL1        0.0255
    138 H          10.9063    4.0810    0.0000 H       1  UNL1        0.0255
    139 H           9.6643    2.1560    0.0000 H       1  UNL1        0.0910
    140 H           9.1742    0.0810    0.0000 H       1  UNL1        0.0524
    141 H           9.7942   -0.5390    0.0000 H       1  UNL1        0.0524
    142 H          10.4142    0.0810    0.0000 H       1  UNL1        0.0524
    143 H           9.1403    0.9984    0.0000 H       1  UNL1        0.0340
    144 H           9.5388    1.6887    0.0000 H       1  UNL1        0.0340
    145 H           7.3261    0.6560    0.0000 H       1  UNL1        0.0624
    146 H           6.4600    2.0060    0.0000 H       1  UNL1        0.0649
    147 H           7.1962    3.4310    0.0000 H       1  UNL1        0.0621
    148 H           6.6401    3.6180    0.0000 H       1  UNL1        0.0255
    149 H           5.7932    3.3910    0.0000 H       1  UNL1        0.0255
    150 H           6.0201    2.5441    0.0000 H       1  UNL1        0.0255
    151 H           5.4641    0.7310    0.0000 H       1  UNL1        0.0938
    152 H           3.8620    0.6560    0.0000 H       1  UNL1        0.0671
    153 H           2.9959    2.0060    0.0000 H       1  UNL1        0.0650
    154 H           3.7320    3.4310    0.0000 H       1  UNL1        0.0646
    155 H           5.3342    3.5060    0.0000 H       1  UNL1        0.0621
    156 H           6.8862    0.1180    0.0000 H       1  UNL1        0.0524
    157 H           6.6592   -0.7290    0.0000 H       1  UNL1        0.0524
    158 H           7.5062   -0.9559    0.0000 H       1  UNL1        0.0524
    159 H           5.2181    4.0810    0.0000 H       1  UNL1        0.0255
    160 H           4.5981    4.7010    0.0000 H       1  UNL1        0.0255
    161 H           3.9781    4.0810    0.0000 H       1  UNL1        0.0255
    162 H           4.0611   -0.2290    0.0000 H       1  UNL1        0.2101
    163 H           2.8660    3.7010    0.0000 H       1  UNL1        0.2100
    164 H           2.3100    2.1180    0.0000 H       1  UNL1        0.0524
    165 H           1.4631    1.8910    0.0000 H       1  UNL1        0.0524
    166 H           1.6900    1.0441    0.0000 H       1  UNL1        0.0524
@<TRIPOS>BOND
     1    22     1    1
     2     1    94    1
     3    25     2    1
     4     2    42    1
     5    27     3    1
     6     3    43    1
     7    40     4    1
     8     4    45    1
     9     5    38    2
    10     6    42    2
    11     7    43    2
    12     8    45    1
    13     8    50    1
    14     9    49    1
    15     9    56    1
    16    10    51    1
    17    10    55    1
    18    11    55    1
    19    11    59    1
    20    12    58    1
    21    12    63    1
    22    13    60    1
    23    13    62    1
    24    14    62    1
    25    14    67    1
    26    15    66    1
    27    15    69    1
    28    16    65    1
    29    16    74    1
    30    17    69    1
    31    17    73    1
    32    18    70    1
    33    18   162    1
    34    19    71    1
    35    19    76    1
    36    20    72    1
    37    20   163    1
    38    21    22    1
    39    21    25    1
    40    21    28    1
    41    21    32    1
    42    22    23    1
    43    22    29    1
    44    23    24    1
    45    23    31    1
    46    23    77    1
    47    24    26    1
    48    24    27    1
    49    24    78    1
    50    25    27    1
    51    25    79    1
    52    26    33    1
    53    26    34    1
    54    26    36    1
    55    27    80    1
    56    28    30    1
    57    28    38    1
    58    28    81    1
    59    29    30    1
    60    29    82    1
    61    29    83    1
    62    30    84    1
    63    30    85    1
    64    31    35    1
    65    31    86    1
    66    31    87    1
    67    32    88    1
    68    32    89    1
    69    32    90    1
    70    33    35    2
    71    33    37    1
    72    34    39    1
    73    34    91    1
    74    34    92    1
    75    35    93    1
    76    36    95    1
    77    36    96    1
    78    36    97    1
    79    37    40    1
    80    37    98    1
    81    37    99    1
    82    38    41    1
    83    39    40    1
    84    39   100    1
    85    39   101    1
    86    40   102    1
    87    41   103    1
    88    41   104    1
    89    41   105    1
    90    42    44    1
    91    43    46    1
    92    44    47    1
    93    44   106    1
    94    44   107    1
    95    45    48    1
    96    45   108    1
    97    46   109    1
    98    46   110    1
    99    46   111    1
   100    47    52    1
   101    47    53    1
   102    47   112    1
   103    48    49    1
   104    48   113    1
   105    48   114    1
   106    49    51    1
   107    49   115    1
   108    50    51    1
   109    50    54    1
   110    50   116    1
   111    51   117    1
   112    52   118    1
   113    52   119    1
   114    52   120    1
   115    53   121    1
   116    53   122    1
   117    53   123    1
   118    54   124    1
   119    54   125    1
   120    54   126    1
   121    55    57    1
   122    55   127    1
   123    56   128    1
   124    56   129    1
   125    56   130    1
   126    57    58    1
   127    57   131    1
   128    57   132    1
   129    58    60    1
   130    58   133    1
   131    59    60    1
   132    59    61    1
   133    59   134    1
   134    60   135    1
   135    61   136    1
   136    61   137    1
   137    61   138    1
   138    62    64    1
   139    62   139    1
   140    63   140    1
   141    63   141    1
   142    63   142    1
   143    64    65    1
   144    64   143    1
   145    64   144    1
   146    65    66    1
   147    65   145    1
   148    66    67    1
   149    66   146    1
   150    67    68    1
   151    67   147    1
   152    68   148    1
   153    68   149    1
   154    68   150    1
   155    69    70    1
   156    69   151    1
   157    70    71    1
   158    70   152    1
   159    71    72    1
   160    71   153    1
   161    72    73    1
   162    72   154    1
   163    73    75    1
   164    73   155    1
   165    74   156    1
   166    74   157    1
   167    74   158    1
   168    75   159    1
   169    75   160    1
   170    75   161    1
   171    76   164    1
   172    76   165    1
   173    76   166    1
