@<TRIPOS>MOLECULE
IMPHY006357
 106 105 0 0 0
SMALL
GASTEIGER

@<TRIPOS>ATOM
      1 O           3.7320   -0.7500    0.0000 O.2     1  UNL1       -0.2974
      2 C          17.5885    0.2500    0.0000 C.3     1  UNL1       -0.0531
      3 C          16.7224    0.7500    0.0000 C.3     1  UNL1       -0.0531
      4 C          18.4545    0.7500    0.0000 C.3     1  UNL1       -0.0531
      5 C          15.8564    0.2500    0.0000 C.3     1  UNL1       -0.0531
      6 C          19.3205    0.2500    0.0000 C.3     1  UNL1       -0.0531
      7 C          14.9904    0.7500    0.0000 C.3     1  UNL1       -0.0531
      8 C          20.1865    0.7500    0.0000 C.3     1  UNL1       -0.0531
      9 C          14.1244    0.2500    0.0000 C.3     1  UNL1       -0.0531
     10 C          21.0526    0.2500    0.0000 C.3     1  UNL1       -0.0531
     11 C          13.2583    0.7500    0.0000 C.3     1  UNL1       -0.0531
     12 C          21.9186    0.7500    0.0000 C.3     1  UNL1       -0.0531
     13 C          12.3923    0.2500    0.0000 C.3     1  UNL1       -0.0531
     14 C          22.7846    0.2500    0.0000 C.3     1  UNL1       -0.0531
     15 C          11.5263    0.7500    0.0000 C.3     1  UNL1       -0.0531
     16 C          23.6506    0.7500    0.0000 C.3     1  UNL1       -0.0531
     17 C          10.6603    0.2500    0.0000 C.3     1  UNL1       -0.0531
     18 C          24.5167    0.2500    0.0000 C.3     1  UNL1       -0.0531
     19 C           9.7942    0.7500    0.0000 C.3     1  UNL1       -0.0531
     20 C          25.3827    0.7500    0.0000 C.3     1  UNL1       -0.0531
     21 C           8.9282    0.2500    0.0000 C.3     1  UNL1       -0.0531
     22 C          26.2487    0.2500    0.0000 C.3     1  UNL1       -0.0531
     23 C           8.0622    0.7500    0.0000 C.3     1  UNL1       -0.0531
     24 C          27.1147    0.7500    0.0000 C.3     1  UNL1       -0.0531
     25 C           7.1962    0.2500    0.0000 C.3     1  UNL1       -0.0530
     26 C          27.9808    0.2500    0.0000 C.3     1  UNL1       -0.0531
     27 C           6.3301    0.7500    0.0000 C.3     1  UNL1       -0.0527
     28 C          28.8468    0.7500    0.0000 C.3     1  UNL1       -0.0531
     29 C           5.4641    0.2500    0.0000 C.3     1  UNL1       -0.0464
     30 C          29.7128    0.2500    0.0000 C.3     1  UNL1       -0.0533
     31 C           4.5981    0.7500    0.0000 C.3     1  UNL1        0.0058
     32 C          30.5788    0.7500    0.0000 C.3     1  UNL1       -0.0559
     33 C           3.7320    0.2500    0.0000 C.2     1  UNL1        0.1331
     34 C          31.4449    0.2500    0.0000 C.3     1  UNL1       -0.0653
     35 C           2.8660    0.7500    0.0000 C.3     1  UNL1        0.0030
     36 C           2.0000    0.2500    0.0000 C.3     1  UNL1       -0.0586
     37 H          17.1899   -0.2249    0.0000 H       1  UNL1        0.0265
     38 H          17.9870   -0.2249    0.0000 H       1  UNL1        0.0265
     39 H          17.1210    1.2250    0.0000 H       1  UNL1        0.0265
     40 H          16.3239    1.2250    0.0000 H       1  UNL1        0.0265
     41 H          18.8530    1.2250    0.0000 H       1  UNL1        0.0265
     42 H          18.0560    1.2250    0.0000 H       1  UNL1        0.0265
     43 H          15.4579   -0.2249    0.0000 H       1  UNL1        0.0265
     44 H          16.2549   -0.2249    0.0000 H       1  UNL1        0.0265
     45 H          18.9220   -0.2249    0.0000 H       1  UNL1        0.0265
     46 H          19.7190   -0.2249    0.0000 H       1  UNL1        0.0265
     47 H          15.3889    1.2250    0.0000 H       1  UNL1        0.0265
     48 H          14.5919    1.2250    0.0000 H       1  UNL1        0.0265
     49 H          20.5851    1.2250    0.0000 H       1  UNL1        0.0265
     50 H          19.7880    1.2250    0.0000 H       1  UNL1        0.0265
     51 H          13.7258   -0.2249    0.0000 H       1  UNL1        0.0265
     52 H          14.5229   -0.2249    0.0000 H       1  UNL1        0.0265
     53 H          20.6540   -0.2249    0.0000 H       1  UNL1        0.0265
     54 H          21.4511   -0.2249    0.0000 H       1  UNL1        0.0265
     55 H          13.6569    1.2250    0.0000 H       1  UNL1        0.0265
     56 H          12.8598    1.2250    0.0000 H       1  UNL1        0.0265
     57 H          22.3171    1.2250    0.0000 H       1  UNL1        0.0265
     58 H          21.5201    1.2250    0.0000 H       1  UNL1        0.0265
     59 H          11.9938   -0.2249    0.0000 H       1  UNL1        0.0265
     60 H          12.7908   -0.2249    0.0000 H       1  UNL1        0.0265
     61 H          22.3861   -0.2249    0.0000 H       1  UNL1        0.0265
     62 H          23.1831   -0.2249    0.0000 H       1  UNL1        0.0265
     63 H          11.9248    1.2250    0.0000 H       1  UNL1        0.0265
     64 H          11.1278    1.2250    0.0000 H       1  UNL1        0.0265
     65 H          24.0492    1.2250    0.0000 H       1  UNL1        0.0265
     66 H          23.2521    1.2250    0.0000 H       1  UNL1        0.0265
     67 H          10.2617   -0.2249    0.0000 H       1  UNL1        0.0265
     68 H          11.0588   -0.2249    0.0000 H       1  UNL1        0.0265
     69 H          24.1181   -0.2249    0.0000 H       1  UNL1        0.0265
     70 H          24.9152   -0.2249    0.0000 H       1  UNL1        0.0265
     71 H          10.1928    1.2250    0.0000 H       1  UNL1        0.0265
     72 H           9.3957    1.2250    0.0000 H       1  UNL1        0.0265
     73 H          25.7812    1.2250    0.0000 H       1  UNL1        0.0265
     74 H          24.9842    1.2250    0.0000 H       1  UNL1        0.0265
     75 H           8.5297   -0.2249    0.0000 H       1  UNL1        0.0265
     76 H           9.3267   -0.2249    0.0000 H       1  UNL1        0.0265
     77 H          25.8502   -0.2249    0.0000 H       1  UNL1        0.0265
     78 H          26.6472   -0.2249    0.0000 H       1  UNL1        0.0265
     79 H           8.4607    1.2250    0.0000 H       1  UNL1        0.0265
     80 H           7.6636    1.2250    0.0000 H       1  UNL1        0.0265
     81 H          27.5133    1.2250    0.0000 H       1  UNL1        0.0265
     82 H          26.7162    1.2250    0.0000 H       1  UNL1        0.0265
     83 H           6.7976   -0.2249    0.0000 H       1  UNL1        0.0265
     84 H           7.5947   -0.2249    0.0000 H       1  UNL1        0.0265
     85 H          27.5822   -0.2249    0.0000 H       1  UNL1        0.0265
     86 H          28.3793   -0.2249    0.0000 H       1  UNL1        0.0265
     87 H           6.7287    1.2250    0.0000 H       1  UNL1        0.0265
     88 H           5.9316    1.2250    0.0000 H       1  UNL1        0.0265
     89 H          29.2453    1.2250    0.0000 H       1  UNL1        0.0265
     90 H          28.4483    1.2250    0.0000 H       1  UNL1        0.0265
     91 H           5.0656   -0.2249    0.0000 H       1  UNL1        0.0269
     92 H           5.8626   -0.2249    0.0000 H       1  UNL1        0.0269
     93 H          29.3143   -0.2249    0.0000 H       1  UNL1        0.0265
     94 H          30.1113   -0.2249    0.0000 H       1  UNL1        0.0265
     95 H           4.9966    1.2250    0.0000 H       1  UNL1        0.0342
     96 H           4.1996    1.2250    0.0000 H       1  UNL1        0.0342
     97 H          30.9774    1.2250    0.0000 H       1  UNL1        0.0263
     98 H          30.1803    1.2250    0.0000 H       1  UNL1        0.0263
     99 H          31.1349   -0.2869    0.0000 H       1  UNL1        0.0230
    100 H          31.9818   -0.0600    0.0000 H       1  UNL1        0.0230
    101 H          31.7549    0.7869    0.0000 H       1  UNL1        0.0230
    102 H           3.2646    1.2250    0.0000 H       1  UNL1        0.0339
    103 H           2.4675    1.2250    0.0000 H       1  UNL1        0.0339
    104 H           1.6900    0.7869    0.0000 H       1  UNL1        0.0234
    105 H           1.4631   -0.0600    0.0000 H       1  UNL1        0.0234
    106 H           2.3100   -0.2869    0.0000 H       1  UNL1        0.0234
@<TRIPOS>BOND
     1     1    33    2
     2     2     3    1
     3     2     4    1
     4     2    37    1
     5     2    38    1
     6     3     5    1
     7     3    39    1
     8     3    40    1
     9     4     6    1
    10     4    41    1
    11     4    42    1
    12     5     7    1
    13     5    43    1
    14     5    44    1
    15     6     8    1
    16     6    45    1
    17     6    46    1
    18     7     9    1
    19     7    47    1
    20     7    48    1
    21     8    10    1
    22     8    49    1
    23     8    50    1
    24     9    11    1
    25     9    51    1
    26     9    52    1
    27    10    12    1
    28    10    53    1
    29    10    54    1
    30    11    13    1
    31    11    55    1
    32    11    56    1
    33    12    14    1
    34    12    57    1
    35    12    58    1
    36    13    15    1
    37    13    59    1
    38    13    60    1
    39    14    16    1
    40    14    61    1
    41    14    62    1
    42    15    17    1
    43    15    63    1
    44    15    64    1
    45    16    18    1
    46    16    65    1
    47    16    66    1
    48    17    19    1
    49    17    67    1
    50    17    68    1
    51    18    20    1
    52    18    69    1
    53    18    70    1
    54    19    21    1
    55    19    71    1
    56    19    72    1
    57    20    22    1
    58    20    73    1
    59    20    74    1
    60    21    23    1
    61    21    75    1
    62    21    76    1
    63    22    24    1
    64    22    77    1
    65    22    78    1
    66    23    25    1
    67    23    79    1
    68    23    80    1
    69    24    26    1
    70    24    81    1
    71    24    82    1
    72    25    27    1
    73    25    83    1
    74    25    84    1
    75    26    28    1
    76    26    85    1
    77    26    86    1
    78    27    29    1
    79    27    87    1
    80    27    88    1
    81    28    30    1
    82    28    89    1
    83    28    90    1
    84    29    31    1
    85    29    91    1
    86    29    92    1
    87    30    32    1
    88    30    93    1
    89    30    94    1
    90    31    33    1
    91    31    95    1
    92    31    96    1
    93    32    34    1
    94    32    97    1
    95    32    98    1
    96    33    35    1
    97    34    99    1
    98    34   100    1
    99    34   101    1
   100    35    36    1
   101    35   102    1
   102    35   103    1
   103    36   104    1
   104    36   105    1
   105    36   106    1
