@<TRIPOS>MOLECULE
IMPHY014359
 68 68 0 0 0
SMALL
GASTEIGER

@<TRIPOS>ATOM
      1 O           4.5981   -2.8450    0.0000 O.3     1  UNL1       -0.4616
      2 O           2.8660   -2.8450    0.0000 O.2     1  UNL1       -0.2456
      3 O           2.8660   -8.8450    0.0000 O.3     1  UNL1       -0.5068
      4 C           8.0622    3.1550    0.0000 C.3     1  UNL1       -0.0531
      5 C           8.0622    4.1550    0.0000 C.3     1  UNL1       -0.0531
      6 C           7.1962    2.6550    0.0000 C.3     1  UNL1       -0.0531
      7 C           8.9282    4.6550    0.0000 C.3     1  UNL1       -0.0531
      8 C           7.1962    1.6550    0.0000 C.3     1  UNL1       -0.0531
      9 C           8.9282    5.6550    0.0000 C.3     1  UNL1       -0.0531
     10 C           6.3301    1.1550    0.0000 C.3     1  UNL1       -0.0531
     11 C           9.7942    6.1550    0.0000 C.3     1  UNL1       -0.0531
     12 C           6.3301    0.1550    0.0000 C.3     1  UNL1       -0.0530
     13 C           9.7942    7.1550    0.0000 C.3     1  UNL1       -0.0531
     14 C           5.4641   -0.3450    0.0000 C.3     1  UNL1       -0.0500
     15 C          10.6603    7.6550    0.0000 C.3     1  UNL1       -0.0533
     16 C           5.4641   -1.3450    0.0000 C.3     1  UNL1       -0.0185
     17 C          10.6603    8.6550    0.0000 C.3     1  UNL1       -0.0559
     18 C           4.5981   -1.8450    0.0000 C.3     1  UNL1        0.0928
     19 C          11.5263    9.1550    0.0000 C.3     1  UNL1       -0.0653
     20 C           3.7320   -3.3450    0.0000 C.2     1  UNL1        0.3319
     21 C           3.7320   -4.3450    0.0000 C.2     1  UNL1        0.0231
     22 C           2.8660   -4.8450    0.0000 C.2     1  UNL1       -0.0478
     23 C           2.8660   -5.8450    0.0000 C.ar    1  UNL1       -0.0246
     24 C           3.7320   -6.3450    0.0000 C.ar    1  UNL1       -0.0511
     25 C           2.0000   -6.3450    0.0000 C.ar    1  UNL1       -0.0511
     26 C           3.7320   -7.3450    0.0000 C.ar    1  UNL1       -0.0196
     27 C           2.0000   -7.3450    0.0000 C.ar    1  UNL1       -0.0196
     28 C           2.8660   -7.8450    0.0000 C.ar    1  UNL1        0.1169
     29 H           8.2742    2.5724    0.0000 H       1  UNL1        0.0265
     30 H           8.6728    3.2627    0.0000 H       1  UNL1        0.0265
     31 H           7.8501    4.7376    0.0000 H       1  UNL1        0.0265
     32 H           7.4516    4.0473    0.0000 H       1  UNL1        0.0265
     33 H           6.9841    3.2376    0.0000 H       1  UNL1        0.0265
     34 H           6.5856    2.5473    0.0000 H       1  UNL1        0.0265
     35 H           9.1403    4.0724    0.0000 H       1  UNL1        0.0265
     36 H           9.5388    4.7627    0.0000 H       1  UNL1        0.0265
     37 H           7.4082    1.0724    0.0000 H       1  UNL1        0.0265
     38 H           7.8067    1.7627    0.0000 H       1  UNL1        0.0265
     39 H           8.7162    6.2376    0.0000 H       1  UNL1        0.0265
     40 H           8.3176    5.5473    0.0000 H       1  UNL1        0.0265
     41 H           6.1181    1.7376    0.0000 H       1  UNL1        0.0265
     42 H           5.7196    1.0473    0.0000 H       1  UNL1        0.0265
     43 H          10.0063    5.5724    0.0000 H       1  UNL1        0.0265
     44 H          10.4048    6.2627    0.0000 H       1  UNL1        0.0265
     45 H           6.5422   -0.4276    0.0000 H       1  UNL1        0.0265
     46 H           6.9407    0.2627    0.0000 H       1  UNL1        0.0265
     47 H           9.5822    7.7376    0.0000 H       1  UNL1        0.0265
     48 H           9.1836    7.0473    0.0000 H       1  UNL1        0.0265
     49 H           5.2520    0.2376    0.0000 H       1  UNL1        0.0266
     50 H           4.8535   -0.4527    0.0000 H       1  UNL1        0.0266
     51 H          10.8723    7.0724    0.0000 H       1  UNL1        0.0265
     52 H          11.2708    7.7627    0.0000 H       1  UNL1        0.0265
     53 H           5.6762   -1.9276    0.0000 H       1  UNL1        0.0298
     54 H           6.0747   -1.2373    0.0000 H       1  UNL1        0.0298
     55 H          10.4482    9.2376    0.0000 H       1  UNL1        0.0263
     56 H          10.0497    8.5473    0.0000 H       1  UNL1        0.0263
     57 H           4.3860   -1.2624    0.0000 H       1  UNL1        0.0697
     58 H           3.9875   -1.9527    0.0000 H       1  UNL1        0.0697
     59 H          11.8363    8.6181    0.0000 H       1  UNL1        0.0230
     60 H          12.0632    9.4650    0.0000 H       1  UNL1        0.0230
     61 H          11.2163    9.6919    0.0000 H       1  UNL1        0.0230
     62 H           4.2690   -4.6550    0.0000 H       1  UNL1        0.0689
     63 H           2.3291   -4.5350    0.0000 H       1  UNL1        0.0626
     64 H           4.2690   -6.0350    0.0000 H       1  UNL1        0.0625
     65 H           1.4631   -6.0350    0.0000 H       1  UNL1        0.0625
     66 H           4.2690   -7.6550    0.0000 H       1  UNL1        0.0654
     67 H           1.4631   -7.6550    0.0000 H       1  UNL1        0.0654
     68 H           2.3291   -9.1550    0.0000 H       1  UNL1        0.2921
@<TRIPOS>BOND
     1     1    18    1
     2     1    20    1
     3     2    20    2
     4     3    28    1
     5     3    68    1
     6     4     5    1
     7     4     6    1
     8     4    29    1
     9     4    30    1
    10     5     7    1
    11     5    31    1
    12     5    32    1
    13     6     8    1
    14     6    33    1
    15     6    34    1
    16     7     9    1
    17     7    35    1
    18     7    36    1
    19     8    10    1
    20     8    37    1
    21     8    38    1
    22     9    11    1
    23     9    39    1
    24     9    40    1
    25    10    12    1
    26    10    41    1
    27    10    42    1
    28    11    13    1
    29    11    43    1
    30    11    44    1
    31    12    14    1
    32    12    45    1
    33    12    46    1
    34    13    15    1
    35    13    47    1
    36    13    48    1
    37    14    16    1
    38    14    49    1
    39    14    50    1
    40    15    17    1
    41    15    51    1
    42    15    52    1
    43    16    18    1
    44    16    53    1
    45    16    54    1
    46    17    19    1
    47    17    55    1
    48    17    56    1
    49    18    57    1
    50    18    58    1
    51    19    59    1
    52    19    60    1
    53    19    61    1
    54    20    21    1
    55    21    22    2
    56    21    62    1
    57    22    23    1
    58    22    63    1
    59    23    24   ar
    60    23    25   ar
    61    24    26   ar
    62    24    64    1
    63    25    27   ar
    64    25    65    1
    65    26    28   ar
    66    26    66    1
    67    27    28   ar
    68    27    67    1
