@<TRIPOS>MOLECULE
IMPHY013628
 62 63 0 0 0
SMALL
GASTEIGER

@<TRIPOS>ATOM
      1 O           4.2690   -2.7500    0.0000 O.3     1  UNL1       -0.3431
      2 O           6.0010   -2.7500    0.0000 O.3     1  UNL1       -0.3387
      3 O           4.2690   -5.7500    0.0000 O.3     1  UNL1       -0.3864
      4 O           6.0010   -4.7500    0.0000 O.3     1  UNL1       -0.3841
      5 O           2.5369   -4.7500    0.0000 O.3     1  UNL1       -0.3866
      6 O           6.8671   -0.2500    0.0000 O.3     1  UNL1       -0.4528
      7 O           4.2690   -1.7500    0.0000 O.3     1  UNL1       -0.3819
      8 O           7.7331   -2.7500    0.0000 O.3     1  UNL1       -0.3858
      9 O           9.4651   -1.7500    0.0000 O.3     1  UNL1       -0.3923
     10 O           4.2690    0.2500    0.0000 O.2     1  UNL1       -0.2982
     11 O           8.5991   -0.2500    0.0000 O.2     1  UNL1       -0.2456
     12 O           6.8671    4.7500    0.0000 O.3     1  UNL1       -0.5033
     13 O           8.5991    5.7500    0.0000 O.3     1  UNL1       -0.5033
     14 C           4.2690   -4.7500    0.0000 C.3     1  UNL1        0.1140
     15 C           5.1350   -4.2500    0.0000 C.3     1  UNL1        0.1341
     16 C           3.4030   -4.2500    0.0000 C.3     1  UNL1        0.1095
     17 C           5.1350   -3.2500    0.0000 C.3     1  UNL1        0.1884
     18 C           3.4030   -3.2500    0.0000 C.3     1  UNL1        0.0873
     19 C           6.0010   -1.7500    0.0000 C.3     1  UNL1        0.1334
     20 C           6.8671   -1.2500    0.0000 C.3     1  UNL1        0.1600
     21 C           2.5369   -2.7500    0.0000 C.3     1  UNL1       -0.0361
     22 C           5.1350   -1.2500    0.0000 C.3     1  UNL1        0.1396
     23 C           7.7331   -1.7500    0.0000 C.3     1  UNL1        0.1175
     24 C           8.5991   -1.2500    0.0000 C.3     1  UNL1        0.0737
     25 C           5.1350   -0.2500    0.0000 C.2     1  UNL1        0.1513
     26 C           7.7331    0.2500    0.0000 C.2     1  UNL1        0.3324
     27 C           7.7331    1.2500    0.0000 C.2     1  UNL1        0.0231
     28 C           8.5991    1.7500    0.0000 C.2     1  UNL1       -0.0477
     29 C           8.5991    2.7500    0.0000 C.ar    1  UNL1       -0.0211
     30 C           7.7331    3.2500    0.0000 C.ar    1  UNL1       -0.0094
     31 C           9.4651    3.2500    0.0000 C.ar    1  UNL1       -0.0509
     32 C           7.7331    4.2500    0.0000 C.ar    1  UNL1        0.1588
     33 C           9.4651    4.2500    0.0000 C.ar    1  UNL1       -0.0160
     34 C           8.5991    4.7500    0.0000 C.ar    1  UNL1        0.1582
     35 H           3.7320   -5.0600    0.0000 H       1  UNL1        0.0648
     36 H           5.1350   -4.8700    0.0000 H       1  UNL1        0.0671
     37 H           3.4030   -4.8700    0.0000 H       1  UNL1        0.0646
     38 H           5.1350   -2.6300    0.0000 H       1  UNL1        0.0938
     39 H           3.4030   -2.6300    0.0000 H       1  UNL1        0.0621
     40 H           6.5380   -2.0600    0.0000 H       1  UNL1        0.0665
     41 H           7.4040   -0.9400    0.0000 H       1  UNL1        0.0788
     42 H           2.8469   -2.2131    0.0000 H       1  UNL1        0.0255
     43 H           2.0000   -2.4400    0.0000 H       1  UNL1        0.0255
     44 H           2.2269   -3.2869    0.0000 H       1  UNL1        0.0255
     45 H           5.1350   -1.8700    0.0000 H       1  UNL1        0.0697
     46 H           8.2700   -2.0600    0.0000 H       1  UNL1        0.0654
     47 H           3.7320   -6.0600    0.0000 H       1  UNL1        0.2100
     48 H           6.0010   -5.3700    0.0000 H       1  UNL1        0.2101
     49 H           2.0000   -4.4400    0.0000 H       1  UNL1        0.2100
     50 H           8.9976   -0.7751    0.0000 H       1  UNL1        0.0584
     51 H           8.2006   -0.7751    0.0000 H       1  UNL1        0.0584
     52 H           5.6720    0.0600    0.0000 H       1  UNL1        0.1055
     53 H           3.7320   -1.4400    0.0000 H       1  UNL1        0.2105
     54 H           8.2700   -3.0600    0.0000 H       1  UNL1        0.2100
     55 H          10.0021   -1.4400    0.0000 H       1  UNL1        0.2095
     56 H           7.1962    1.5600    0.0000 H       1  UNL1        0.0689
     57 H           9.1360    1.4400    0.0000 H       1  UNL1        0.0626
     58 H           7.1962    2.9400    0.0000 H       1  UNL1        0.0661
     59 H          10.0021    2.9400    0.0000 H       1  UNL1        0.0625
     60 H          10.0021    4.5600    0.0000 H       1  UNL1        0.0655
     61 H           6.8671    5.3700    0.0000 H       1  UNL1        0.2923
     62 H           9.1360    6.0600    0.0000 H       1  UNL1        0.2923
@<TRIPOS>BOND
     1     1    17    1
     2     1    18    1
     3    17     2    1
     4    19     2    1
     5    14     3    1
     6     3    47    1
     7    15     4    1
     8     4    48    1
     9    16     5    1
    10     5    49    1
    11    20     6    1
    12     6    26    1
    13    22     7    1
    14     7    53    1
    15    23     8    1
    16     8    54    1
    17     9    24    1
    18     9    55    1
    19    10    25    2
    20    11    26    2
    21    12    32    1
    22    12    61    1
    23    13    34    1
    24    13    62    1
    25    14    15    1
    26    14    16    1
    27    14    35    1
    28    15    17    1
    29    15    36    1
    30    16    18    1
    31    16    37    1
    32    17    38    1
    33    18    21    1
    34    18    39    1
    35    19    20    1
    36    19    22    1
    37    19    40    1
    38    20    23    1
    39    20    41    1
    40    21    42    1
    41    21    43    1
    42    21    44    1
    43    22    25    1
    44    22    45    1
    45    23    24    1
    46    23    46    1
    47    24    50    1
    48    24    51    1
    49    25    52    1
    50    26    27    1
    51    27    28    2
    52    27    56    1
    53    28    29    1
    54    28    57    1
    55    29    30   ar
    56    29    31   ar
    57    30    32   ar
    58    30    58    1
    59    31    33   ar
    60    31    59    1
    61    32    34   ar
    62    33    34   ar
    63    33    60    1
