@<TRIPOS>MOLECULE
IMPHY009796
 63 65 0 0 0
SMALL
GASTEIGER

@<TRIPOS>ATOM
      1 O           8.4497    0.1550    0.0000 O.3     1  UNL1       -0.3313
      2 O           5.8517   -0.3450    0.0000 O.3     1  UNL1       -0.3460
      3 O           4.8811    1.1495    0.0000 O.3     1  UNL1       -0.3457
      4 O           2.6598   -0.1777    0.0000 O.3     1  UNL1       -0.3812
      5 O           6.7177   -1.8450    0.0000 O.3     1  UNL1       -0.3865
      6 O          10.1818    0.1550    0.0000 O.3     1  UNL1       -0.4605
      7 O           3.8642   -1.2299    0.0000 O.3     1  UNL1       -0.3837
      8 O           8.4497   -2.8450    0.0000 O.3     1  UNL1       -0.3864
      9 O          10.1818   -1.8450    0.0000 O.3     1  UNL1       -0.3829
     10 O           2.5369    1.9914    0.0000 O.3     1  UNL1       -0.3920
     11 C           3.4030    0.4914    0.0000 C.3     1  UNL1        0.1425
     12 C           7.5837   -0.3450    0.0000 C.3     1  UNL1        0.1144
     13 C           7.5837   -1.3450    0.0000 C.3     1  UNL1        0.1120
     14 C           4.0721   -0.2517    0.0000 C.3     1  UNL1        0.1387
     15 C           8.4497   -1.8450    0.0000 C.3     1  UNL1        0.1152
     16 C           4.9856    0.1550    0.0000 C.3     1  UNL1        0.1880
     17 C           9.3158   -1.3450    0.0000 C.3     1  UNL1        0.1454
     18 C           9.3158   -0.3450    0.0000 C.3     1  UNL1        0.2308
     19 C           6.7177    0.1550    0.0000 C.3     1  UNL1        0.0796
     20 C           3.9030    1.3574    0.0000 C.3     1  UNL1        0.0843
     21 C           2.5369    0.9914    0.0000 C.3     1  UNL1        0.0778
     22 C          10.1818    1.1550    0.0000 C.ar    1  UNL1        0.1276
     23 C          11.0478    1.6550    0.0000 C.ar    1  UNL1       -0.0030
     24 C          11.9138    1.1550    0.0000 C.3     1  UNL1       -0.0181
     25 C           9.3158    1.6550    0.0000 C.ar    1  UNL1       -0.0166
     26 C          11.0478    2.6550    0.0000 C.ar    1  UNL1       -0.0546
     27 C           9.3158    2.6550    0.0000 C.ar    1  UNL1       -0.0470
     28 C          12.7799    1.6550    0.0000 C.3     1  UNL1       -0.0585
     29 C          11.9138    0.1550    0.0000 C.3     1  UNL1       -0.0585
     30 C          10.1818    3.1550    0.0000 C.ar    1  UNL1       -0.0583
     31 C           8.4497    3.1550    0.0000 C.3     1  UNL1       -0.0396
     32 H           7.5837    0.2750    0.0000 H       1  UNL1        0.0647
     33 H           7.0468   -1.0350    0.0000 H       1  UNL1        0.0647
     34 H           3.4732   -0.4122    0.0000 H       1  UNL1        0.0675
     35 H           7.9128   -2.1550    0.0000 H       1  UNL1        0.0648
     36 H           4.9532   -0.4642    0.0000 H       1  UNL1        0.0937
     37 H           9.8527   -1.0350    0.0000 H       1  UNL1        0.0683
     38 H           9.3158    0.2750    0.0000 H       1  UNL1        0.1084
     39 H           7.1162    0.6299    0.0000 H       1  UNL1        0.0587
     40 H           6.3192    0.6299    0.0000 H       1  UNL1        0.0587
     41 H           4.0946    1.9471    0.0000 H       1  UNL1        0.0591
     42 H           3.3366    1.6096    0.0000 H       1  UNL1        0.0591
     43 H           1.9264    1.0991    0.0000 H       1  UNL1        0.0587
     44 H           2.3249    0.4088    0.0000 H       1  UNL1        0.0587
     45 H           2.0702    0.0139    0.0000 H       1  UNL1        0.2105
     46 H           6.7177   -2.4650    0.0000 H       1  UNL1        0.2100
     47 H           4.3249   -1.6448    0.0000 H       1  UNL1        0.2101
     48 H           8.9867   -3.1550    0.0000 H       1  UNL1        0.2100
     49 H          10.7187   -1.5350    0.0000 H       1  UNL1        0.2102
     50 H           2.0000    2.3014    0.0000 H       1  UNL1        0.2095
     51 H          11.3769    0.8450    0.0000 H       1  UNL1        0.0345
     52 H           8.7788    1.3450    0.0000 H       1  UNL1        0.0657
     53 H          11.5848    2.9650    0.0000 H       1  UNL1        0.0622
     54 H          13.0899    1.1181    0.0000 H       1  UNL1        0.0235
     55 H          13.3168    1.9650    0.0000 H       1  UNL1        0.0235
     56 H          12.4699    2.1919    0.0000 H       1  UNL1        0.0235
     57 H          11.2938    0.1550    0.0000 H       1  UNL1        0.0235
     58 H          11.9138   -0.4650    0.0000 H       1  UNL1        0.0235
     59 H          12.5338    0.1550    0.0000 H       1  UNL1        0.0235
     60 H          10.1818    3.7750    0.0000 H       1  UNL1        0.0620
     61 H           8.7597    3.6919    0.0000 H       1  UNL1        0.0278
     62 H           7.9128    3.4650    0.0000 H       1  UNL1        0.0278
     63 H           8.1397    2.6181    0.0000 H       1  UNL1        0.0278
@<TRIPOS>BOND
     1     1    12    1
     2     1    18    1
     3    16     2    1
     4     2    19    1
     5     3    16    1
     6     3    20    1
     7    11     4    1
     8     4    45    1
     9    13     5    1
    10     5    46    1
    11    18     6    1
    12     6    22    1
    13    14     7    1
    14     7    47    1
    15    15     8    1
    16     8    48    1
    17    17     9    1
    18     9    49    1
    19    10    21    1
    20    10    50    1
    21    11    14    1
    22    11    20    1
    23    11    21    1
    24    12    13    1
    25    12    19    1
    26    12    32    1
    27    13    15    1
    28    13    33    1
    29    14    16    1
    30    14    34    1
    31    15    17    1
    32    15    35    1
    33    16    36    1
    34    17    18    1
    35    17    37    1
    36    18    38    1
    37    19    39    1
    38    19    40    1
    39    20    41    1
    40    20    42    1
    41    21    43    1
    42    21    44    1
    43    22    23   ar
    44    22    25   ar
    45    23    24    1
    46    23    26   ar
    47    24    28    1
    48    24    29    1
    49    24    51    1
    50    25    27   ar
    51    25    52    1
    52    26    30   ar
    53    26    53    1
    54    27    30   ar
    55    27    31    1
    56    28    54    1
    57    28    55    1
    58    28    56    1
    59    29    57    1
    60    29    58    1
    61    29    59    1
    62    30    60    1
    63    31    61    1
    64    31    62    1
    65    31    63    1
