@<TRIPOS>MOLECULE
IMPHY009696
 27 28 0 0 0
SMALL
GASTEIGER

@<TRIPOS>ATOM
      1 O           2.0000   -1.0000    0.0000 O.2     1  UNL1       -0.2971
      2 C           5.4646    0.0000    0.0000 C.3     1  UNL1       -0.0283
      3 C           4.5981    0.5000    0.0000 C.3     1  UNL1       -0.0313
      4 C           4.5981   -0.5000    0.0000 C.3     1  UNL1       -0.0256
      5 C           3.7320    1.0000    0.0000 C.3     1  UNL1       -0.0401
      6 C           3.7320   -1.0000    0.0000 C.3     1  UNL1        0.0097
      7 C           5.9646   -0.8660    0.0000 C.3     1  UNL1       -0.0593
      8 C           5.9646    0.8660    0.0000 C.3     1  UNL1       -0.0593
      9 C           2.8660    0.5000    0.0000 C.3     1  UNL1        0.0150
     10 C           2.8660   -0.5000    0.0000 C.2     1  UNL1        0.1365
     11 C           2.0000    1.0000    0.0000 C.3     1  UNL1       -0.0557
     12 H           5.0230    1.2362    0.0000 H       1  UNL1        0.0309
     13 H           5.0230   -1.2362    0.0000 H       1  UNL1        0.0313
     14 H           4.1306    1.4750    0.0000 H       1  UNL1        0.0275
     15 H           3.3335    1.4750    0.0000 H       1  UNL1        0.0275
     16 H           3.3335   -1.4750    0.0000 H       1  UNL1        0.0345
     17 H           4.1306   -1.4750    0.0000 H       1  UNL1        0.0345
     18 H           5.4277   -1.1760    0.0000 H       1  UNL1        0.0235
     19 H           6.2746   -1.4030    0.0000 H       1  UNL1        0.0235
     20 H           6.5016   -0.5560    0.0000 H       1  UNL1        0.0235
     21 H           6.5016    0.5560    0.0000 H       1  UNL1        0.0235
     22 H           6.2746    1.4030    0.0000 H       1  UNL1        0.0235
     23 H           5.4277    1.1760    0.0000 H       1  UNL1        0.0235
     24 H           2.8660    1.1200    0.0000 H       1  UNL1        0.0375
     25 H           2.3100    1.5369    0.0000 H       1  UNL1        0.0236
     26 H           1.4631    1.3100    0.0000 H       1  UNL1        0.0236
     27 H           1.6900    0.4631    0.0000 H       1  UNL1        0.0236
@<TRIPOS>BOND
     1     1    10    2
     2     2     3    1
     3     2     4    1
     4     2     7    1
     5     2     8    1
     6     3     4    1
     7     3     5    1
     8     3    12    1
     9     4     6    1
    10     4    13    1
    11     5     9    1
    12     5    14    1
    13     5    15    1
    14     6    10    1
    15     6    16    1
    16     6    17    1
    17     7    18    1
    18     7    19    1
    19     7    20    1
    20     8    21    1
    21     8    22    1
    22     8    23    1
    23     9    10    1
    24     9    11    1
    25     9    24    1
    26    11    25    1
    27    11    26    1
    28    11    27    1
