@<TRIPOS>MOLECULE
IMPHY003504
 38 41 0 0 0
SMALL
GASTEIGER

@<TRIPOS>ATOM
      1 O           7.5110    1.3878    0.0000 O.3     1  UNL1       -0.3326
      2 O           7.3206   -1.0957    0.0000 O.3     1  UNL1       -0.4504
      3 O           5.6648    1.9038    0.0000 O.2     1  UNL1       -0.4701
      4 O          10.3163   -0.5127    0.0000 O.3     1  UNL1       -0.3912
      5 O           8.9025   -1.9038    0.0000 O.2     1  UNL1       -0.2503
      6 O           2.9327    0.7592    0.0000 O.3     1  UNL1       -0.4646
      7 O           3.5572   -0.8564    0.0000 O.2     1  UNL1       -0.2452
      8 C           7.0110   -0.1510    0.0000 C.3     1  UNL1        0.1678
      9 C           6.2020    0.4367    0.0000 C.3     1  UNL1        0.0780
     10 C           7.8200    0.4367    0.0000 C.3     1  UNL1        0.1217
     11 C           5.3992   -0.1496    0.0000 C.3     1  UNL1        0.0246
     12 C           6.5110    1.3878    0.0000 C.3     1  UNL1        0.2090
     13 C           8.6227   -0.1496    0.0000 C.3     1  UNL1        0.1122
     14 C           6.7013   -1.0957    0.0000 C.2     1  UNL1       -0.0412
     15 C           5.7073   -1.0948    0.0000 C.2     1  UNL1       -0.0758
     16 C           8.3147   -1.0948    0.0000 C.2     1  UNL1        0.3163
     17 C           4.6441    0.4922    0.0000 C.2     1  UNL1        0.0781
     18 C           9.5743    0.1577    0.0000 C.3     1  UNL1        0.0679
     19 C           4.7712    1.4752    0.0000 C.2     1  UNL1        0.0984
     20 C           9.7839    1.1355    0.0000 C.3     1  UNL1       -0.0381
     21 C           3.7114    0.1317    0.0000 C.2     1  UNL1        0.3384
     22 C           2.0000    0.3987    0.0000 C.3     1  UNL1        0.0820
     23 H           5.6999    0.8005    0.0000 H       1  UNL1        0.0414
     24 H           8.3221    0.8005    0.0000 H       1  UNL1        0.0650
     25 H           4.8843   -0.4949    0.0000 H       1  UNL1        0.0401
     26 H           6.6786    1.9847    0.0000 H       1  UNL1        0.1060
     27 H           9.0605   -0.5886    0.0000 H       1  UNL1        0.0466
     28 H           7.0649   -1.5979    0.0000 H       1  UNL1        0.0609
     29 H           5.3428   -1.5964    0.0000 H       1  UNL1        0.0576
     30 H          10.1643    0.3483    0.0000 H       1  UNL1        0.0599
     31 H           4.2688    1.8384    0.0000 H       1  UNL1        0.1029
     32 H          10.3901    1.0056    0.0000 H       1  UNL1        0.0255
     33 H           9.9138    1.7417    0.0000 H       1  UNL1        0.0255
     34 H           9.1777    1.2655    0.0000 H       1  UNL1        0.0255
     35 H          10.9063   -0.3221    0.0000 H       1  UNL1        0.2098
     36 H           1.7765    0.9770    0.0000 H       1  UNL1        0.0661
     37 H           1.4217    0.1751    0.0000 H       1  UNL1        0.0661
     38 H           2.2235   -0.1796    0.0000 H       1  UNL1        0.0661
@<TRIPOS>BOND
     1     1    10    1
     2     1    12    1
     3     2     8    1
     4     2    16    1
     5     3    12    1
     6     3    19    1
     7     4    18    1
     8     4    35    1
     9     5    16    2
    10     6    21    1
    11     6    22    1
    12     7    21    2
    13     8     9    1
    14     8    10    1
    15     8    14    1
    16     9    11    1
    17     9    12    1
    18     9    23    1
    19    10    13    1
    20    10    24    1
    21    11    15    1
    22    11    17    1
    23    11    25    1
    24    12    26    1
    25    13    16    1
    26    13    18    1
    27    13    27    1
    28    14    15    2
    29    14    28    1
    30    15    29    1
    31    17    19    2
    32    17    21    1
    33    18    20    1
    34    18    30    1
    35    19    31    1
    36    20    32    1
    37    20    33    1
    38    20    34    1
    39    22    36    1
    40    22    37    1
    41    22    38    1
