@<TRIPOS>MOLECULE
IMPHY010980
 42 44 0 0 0
SMALL
GASTEIGER

@<TRIPOS>ATOM
      1 O           6.3580   -0.9226    0.0000 O.2     1  UNL1       -0.4541
      2 O           2.8660   -0.8879    0.0000 O.3     1  UNL1       -0.4943
      3 O           4.5981    2.1121    0.0000 O.3     1  UNL1       -0.5055
      4 O           6.3465    2.1467    0.0000 O.2     1  UNL1       -0.2869
      5 O          10.7205   -2.4221    0.0000 O.3     1  UNL1       -0.4951
      6 C           5.4641   -0.3879    0.0000 C.ar    1  UNL1        0.1491
      7 C           5.4641    0.6121    0.0000 C.ar    1  UNL1        0.1060
      8 C           4.5981   -0.8879    0.0000 C.ar    1  UNL1        0.0346
      9 C           3.7320    0.6121    0.0000 C.ar    1  UNL1        0.0337
     10 C           3.7320   -0.3879    0.0000 C.ar    1  UNL1        0.1329
     11 C           4.5981    1.1121    0.0000 C.ar    1  UNL1        0.1376
     12 C           6.3580    1.1467    0.0000 C.ar    1  UNL1        0.1966
     13 C           7.2641   -0.4087    0.0000 C.ar    1  UNL1        0.1392
     14 C           7.2641    0.6329    0.0000 C.ar    1  UNL1        0.0288
     15 C           4.5981   -1.8879    0.0000 C.3     1  UNL1       -0.0327
     16 C           2.8660    1.1121    0.0000 C.3     1  UNL1       -0.0327
     17 C           8.1282   -0.9121    0.0000 C.ar    1  UNL1        0.0176
     18 C           8.1244   -1.9121    0.0000 C.ar    1  UNL1       -0.0476
     19 C           8.9962   -0.4154    0.0000 C.ar    1  UNL1       -0.0476
     20 C           8.9884   -2.4154    0.0000 C.ar    1  UNL1       -0.0193
     21 C           9.8602   -0.9188    0.0000 C.ar    1  UNL1       -0.0193
     22 C           9.8564   -1.9187    0.0000 C.ar    1  UNL1        0.1201
     23 C           2.0000   -0.3879    0.0000 C.3     1  UNL1        0.0788
     24 C          11.5884   -1.9254    0.0000 C.3     1  UNL1        0.0788
     25 H           7.7998    0.9450    0.0000 H       1  UNL1        0.0693
     26 H           3.9781   -1.8879    0.0000 H       1  UNL1        0.0280
     27 H           4.5981   -2.5079    0.0000 H       1  UNL1        0.0280
     28 H           5.2181   -1.8879    0.0000 H       1  UNL1        0.0280
     29 H           3.1760    1.6490    0.0000 H       1  UNL1        0.0280
     30 H           2.3291    1.4221    0.0000 H       1  UNL1        0.0280
     31 H           2.5560    0.5751    0.0000 H       1  UNL1        0.0280
     32 H           7.5862   -2.2200    0.0000 H       1  UNL1        0.0626
     33 H           8.9985    0.2046    0.0000 H       1  UNL1        0.0626
     34 H           4.0611    2.4221    0.0000 H       1  UNL1        0.2922
     35 H           8.9860   -3.0354    0.0000 H       1  UNL1        0.0654
     36 H          10.3984   -0.6108    0.0000 H       1  UNL1        0.0654
     37 H           2.3100    0.1490    0.0000 H       1  UNL1        0.0660
     38 H           1.4631   -0.0779    0.0000 H       1  UNL1        0.0660
     39 H           1.6900   -0.9249    0.0000 H       1  UNL1        0.0660
     40 H          11.8964   -2.4636    0.0000 H       1  UNL1        0.0660
     41 H          12.1266   -1.6175    0.0000 H       1  UNL1        0.0660
     42 H          11.2805   -1.3873    0.0000 H       1  UNL1        0.0660
@<TRIPOS>BOND
     1     1     6   ar
     2     1    13   ar
     3     2    10    1
     4     2    23    1
     5     3    11    1
     6     3    34    1
     7     4    12    2
     8     5    22    1
     9     5    24    1
    10     6     7   ar
    11     6     8   ar
    12     7    11   ar
    13     7    12   ar
    14     8    10   ar
    15     8    15    1
    16     9    10   ar
    17     9    11   ar
    18     9    16    1
    19    12    14   ar
    20    13    14   ar
    21    13    17    1
    22    14    25    1
    23    15    26    1
    24    15    27    1
    25    15    28    1
    26    16    29    1
    27    16    30    1
    28    16    31    1
    29    17    18   ar
    30    17    19   ar
    31    18    20   ar
    32    18    32    1
    33    19    21   ar
    34    19    33    1
    35    20    22   ar
    36    20    35    1
    37    21    22   ar
    38    21    36    1
    39    23    37    1
    40    23    38    1
    41    23    39    1
    42    24    40    1
    43    24    41    1
    44    24    42    1
