@<TRIPOS>MOLECULE
IMPHY010906
 128 134 0 0 0
SMALL
GASTEIGER

@<TRIPOS>ATOM
      1 O           6.8671   -1.0590    0.0000 O.3     1  UNL1       -0.3451
      2 O           5.9675    4.5068    0.0000 O.3     1  UNL1       -0.3915
      3 O           4.7948    4.5682    0.0000 O.3     1  UNL1       -0.3673
      4 O          10.5121   -0.0280    0.0000 O.3     1  UNL1       -0.3912
      5 O           5.1350   -1.0590    0.0000 O.3     1  UNL1       -0.3405
      6 O           6.4007    6.7528    0.0000 O.3     1  UNL1       -0.3866
      7 O           6.8671   -3.0590    0.0000 O.3     1  UNL1       -0.3378
      8 O           5.1350   -4.0590    0.0000 O.3     1  UNL1       -0.3864
      9 O           3.4030   -3.0590    0.0000 O.3     1  UNL1       -0.3865
     10 O           6.0010   -4.5590    0.0000 O.3     1  UNL1       -0.3431
     11 O           2.5369   -1.5590    0.0000 O.3     1  UNL1       -0.3924
     12 O           8.5991   -4.0590    0.0000 O.3     1  UNL1       -0.3841
     13 O           8.5991   -6.0590    0.0000 O.3     1  UNL1       -0.3864
     14 O           6.8671   -7.0590    0.0000 O.3     1  UNL1       -0.3866
     15 C           5.9790    1.5068    0.0000 C.3     1  UNL1       -0.0206
     16 C           5.1111    2.0035    0.0000 C.3     1  UNL1       -0.0208
     17 C           6.8431    2.0102    0.0000 C.3     1  UNL1       -0.0269
     18 C           7.7551    1.5068    0.0000 C.3     1  UNL1       -0.0228
     19 C           5.1072    3.0035    0.0000 C.3     1  UNL1       -0.0036
     20 C           7.7671    0.4653    0.0000 C.3     1  UNL1       -0.0014
     21 C           4.1598    3.3046    0.0000 C.3     1  UNL1       -0.0064
     22 C           5.9670    0.4653    0.0000 C.3     1  UNL1       -0.0200
     23 C           6.8393    3.0102    0.0000 C.3     1  UNL1       -0.0227
     24 C           4.1661    1.6951    0.0000 C.3     1  UNL1       -0.0464
     25 C           5.9713    3.5068    0.0000 C.3     1  UNL1        0.0592
     26 C           6.8671   -0.0590    0.0000 C.3     1  UNL1        0.0662
     27 C           3.5794    2.4976    0.0000 C.3     1  UNL1       -0.0467
     28 C           8.7047   -0.0808    0.0000 C.3     1  UNL1       -0.0032
     29 C           8.6797    2.0745    0.0000 C.3     1  UNL1       -0.0446
     30 C           5.3392    0.7383    0.0000 C.3     1  UNL1       -0.0587
     31 C           4.7727    1.0625    0.0000 C.3     1  UNL1       -0.0587
     32 C           3.8455    4.2539    0.0000 C.3     1  UNL1        0.0705
     33 C           7.7435    2.5068    0.0000 C.3     1  UNL1       -0.0589
     34 C           9.6422    0.4653    0.0000 C.3     1  UNL1        0.0607
     35 C           9.6296    1.5502    0.0000 C.3     1  UNL1       -0.0258
     36 C           3.2532    5.0596    0.0000 C.3     1  UNL1       -0.0213
     37 C           9.2047   -0.9469    0.0000 C.3     1  UNL1       -0.0571
     38 C           8.2047   -0.9469    0.0000 C.3     1  UNL1       -0.0571
     39 C           3.0398    3.6616    0.0000 C.3     1  UNL1       -0.0355
     40 C           3.8365    5.8719    0.0000 C.3     1  UNL1       -0.0213
     41 C           4.7893    5.5682    0.0000 C.3     1  UNL1        0.0876
     42 C           6.0010   -1.5590    0.0000 C.3     1  UNL1        0.1886
     43 C           5.5950    6.1605    0.0000 C.3     1  UNL1        0.0865
     44 C           6.0010   -2.5590    0.0000 C.3     1  UNL1        0.1406
     45 C           5.1350   -3.0590    0.0000 C.3     1  UNL1        0.1144
     46 C           5.0027    6.9662    0.0000 C.3     1  UNL1       -0.0339
     47 C           6.1873    5.3548    0.0000 C.3     1  UNL1       -0.0339
     48 C           4.2690   -1.5590    0.0000 C.3     1  UNL1        0.1130
     49 C           4.2690   -2.5590    0.0000 C.3     1  UNL1        0.1119
     50 C           3.4030   -1.0590    0.0000 C.3     1  UNL1        0.0730
     51 C           6.8671   -4.0590    0.0000 C.3     1  UNL1        0.1884
     52 C           7.7331   -4.5590    0.0000 C.3     1  UNL1        0.1341
     53 C           7.7331   -5.5590    0.0000 C.3     1  UNL1        0.1140
     54 C           6.0010   -5.5590    0.0000 C.3     1  UNL1        0.0873
     55 C           6.8671   -6.0590    0.0000 C.3     1  UNL1        0.1095
     56 C           5.1350   -6.0590    0.0000 C.3     1  UNL1       -0.0361
     57 H           7.5743    2.4436    0.0000 H       1  UNL1        0.0312
     58 H           5.0140    3.8484    0.0000 H       1  UNL1        0.0335
     59 H           7.7671   -0.3847    0.0000 H       1  UNL1        0.0337
     60 H           3.3196    3.4332    0.0000 H       1  UNL1        0.0332
     61 H           5.3574    0.5784    0.0000 H       1  UNL1        0.0296
     62 H           5.7512   -0.1160    0.0000 H       1  UNL1        0.0296
     63 H           7.4503    2.9049    0.0000 H       1  UNL1        0.0293
     64 H           7.0491    3.5936    0.0000 H       1  UNL1        0.0293
     65 H           3.6299    1.3838    0.0000 H       1  UNL1        0.0271
     66 H           4.4193    1.1292    0.0000 H       1  UNL1        0.0271
     67 H           6.5071    3.8189    0.0000 H       1  UNL1        0.0596
     68 H           7.4046   -0.3680    0.0000 H       1  UNL1        0.0600
     69 H           3.1169    2.9105    0.0000 H       1  UNL1        0.0269
     70 H           3.1201    2.0811    0.0000 H       1  UNL1        0.0269
     71 H           9.0678    2.5580    0.0000 H       1  UNL1        0.0271
     72 H           8.2697    2.5396    0.0000 H       1  UNL1        0.0271
     73 H           4.8627    1.1350    0.0000 H       1  UNL1        0.0235
     74 H           4.9425    0.2619    0.0000 H       1  UNL1        0.0235
     75 H           5.8156    0.3416    0.0000 H       1  UNL1        0.0235
     76 H           4.1893    1.2723    0.0000 H       1  UNL1        0.0235
     77 H           4.5629    0.4791    0.0000 H       1  UNL1        0.0235
     78 H           5.3561    0.8527    0.0000 H       1  UNL1        0.0235
     79 H           8.3635    2.5139    0.0000 H       1  UNL1        0.0235
     80 H           7.7364    3.1267    0.0000 H       1  UNL1        0.0235
     81 H           7.1236    2.4996    0.0000 H       1  UNL1        0.0235
     82 H          10.1761    0.7804    0.0000 H       1  UNL1        0.0599
     83 H          10.2417    1.4512    0.0000 H       1  UNL1        0.0290
     84 H           9.8319    2.1363    0.0000 H       1  UNL1        0.0290
     85 H           2.7902    5.4719    0.0000 H       1  UNL1        0.0294
     86 H           2.7948    4.6422    0.0000 H       1  UNL1        0.0294
     87 H           7.6677   -0.6369    0.0000 H       1  UNL1        0.0236
     88 H           7.8947   -1.4838    0.0000 H       1  UNL1        0.0236
     89 H           8.7416   -1.2569    0.0000 H       1  UNL1        0.0236
     90 H           8.6677   -1.2569    0.0000 H       1  UNL1        0.0236
     91 H           9.5147   -1.4838    0.0000 H       1  UNL1        0.0236
     92 H           9.7416   -0.6369    0.0000 H       1  UNL1        0.0236
     93 H           6.5032    4.8189    0.0000 H       1  UNL1        0.2098
     94 H           2.6726    4.1611    0.0000 H       1  UNL1        0.0257
     95 H           2.5403    3.2944    0.0000 H       1  UNL1        0.0257
     96 H           3.4070    3.1620    0.0000 H       1  UNL1        0.0257
     97 H           4.0855    6.4397    0.0000 H       1  UNL1        0.0292
     98 H           3.2978    6.1789    0.0000 H       1  UNL1        0.0292
     99 H           5.5488    5.1865    0.0000 H       1  UNL1        0.0625
    100 H           6.5380   -1.8690    0.0000 H       1  UNL1        0.0938
    101 H          11.0466    0.2861    0.0000 H       1  UNL1        0.2098
    102 H           6.0010   -3.1790    0.0000 H       1  UNL1        0.0675
    103 H           4.5981   -3.3690    0.0000 H       1  UNL1        0.0648
    104 H           5.5022    7.3334    0.0000 H       1  UNL1        0.0258
    105 H           4.6355    7.4658    0.0000 H       1  UNL1        0.0258
    106 H           4.5031    6.5990    0.0000 H       1  UNL1        0.0258
    107 H           5.6877    4.9875    0.0000 H       1  UNL1        0.0258
    108 H           6.5545    4.8552    0.0000 H       1  UNL1        0.0258
    109 H           6.6868    5.7220    0.0000 H       1  UNL1        0.0258
    110 H           4.2690   -0.9390    0.0000 H       1  UNL1        0.0647
    111 H           3.7320   -2.2490    0.0000 H       1  UNL1        0.0647
    112 H           6.3324    7.3690    0.0000 H       1  UNL1        0.2102
    113 H           3.8015   -0.5841    0.0000 H       1  UNL1        0.0584
    114 H           3.0044   -0.5841    0.0000 H       1  UNL1        0.0584
    115 H           7.4040   -3.7490    0.0000 H       1  UNL1        0.0938
    116 H           4.5981   -4.3690    0.0000 H       1  UNL1        0.2100
    117 H           3.4030   -3.6790    0.0000 H       1  UNL1        0.2100
    118 H           8.2700   -4.8690    0.0000 H       1  UNL1        0.0671
    119 H           2.0000   -1.2490    0.0000 H       1  UNL1        0.2095
    120 H           7.7331   -6.1790    0.0000 H       1  UNL1        0.0648
    121 H           5.4641   -5.2490    0.0000 H       1  UNL1        0.0621
    122 H           6.3301   -6.3690    0.0000 H       1  UNL1        0.0646
    123 H           9.1360   -4.3690    0.0000 H       1  UNL1        0.2101
    124 H           4.8250   -5.5221    0.0000 H       1  UNL1        0.0255
    125 H           4.5981   -6.3690    0.0000 H       1  UNL1        0.0255
    126 H           5.4450   -6.5960    0.0000 H       1  UNL1        0.0255
    127 H           8.5991   -6.6790    0.0000 H       1  UNL1        0.2100
    128 H           6.3301   -7.3690    0.0000 H       1  UNL1        0.2100
@<TRIPOS>BOND
     1    26     1    1
     2    42     1    1
     3    25     2    1
     4     2    93    1
     5     3    32    1
     6     3    41    1
     7    34     4    1
     8     4   101    1
     9     5    42    1
    10     5    48    1
    11     6    43    1
    12     6   112    1
    13    44     7    1
    14    51     7    1
    15    45     8    1
    16     8   116    1
    17    49     9    1
    18     9   117    1
    19    10    51    1
    20    10    54    1
    21    11    50    1
    22    11   119    1
    23    52    12    1
    24    12   123    1
    25    53    13    1
    26    13   127    1
    27    55    14    1
    28    14   128    1
    29    15    16    1
    30    15    17    1
    31    15    22    1
    32    15    30    1
    33    16    19    1
    34    16    24    1
    35    16    31    1
    36    17    18    1
    37    17    23    1
    38    17    57    1
    39    18    20    1
    40    18    29    1
    41    18    33    1
    42    19    21    1
    43    19    25    1
    44    19    58    1
    45    20    26    1
    46    20    28    1
    47    20    59    1
    48    21    27    1
    49    21    32    1
    50    21    60    1
    51    22    26    1
    52    22    61    1
    53    22    62    1
    54    23    25    1
    55    23    63    1
    56    23    64    1
    57    24    27    1
    58    24    65    1
    59    24    66    1
    60    25    67    1
    61    26    68    1
    62    27    69    1
    63    27    70    1
    64    28    34    1
    65    28    37    1
    66    28    38    1
    67    29    35    1
    68    29    71    1
    69    29    72    1
    70    30    73    1
    71    30    74    1
    72    30    75    1
    73    31    76    1
    74    31    77    1
    75    31    78    1
    76    32    36    1
    77    32    39    1
    78    33    79    1
    79    33    80    1
    80    33    81    1
    81    34    35    1
    82    34    82    1
    83    35    83    1
    84    35    84    1
    85    36    40    1
    86    36    85    1
    87    36    86    1
    88    37    90    1
    89    37    91    1
    90    37    92    1
    91    38    87    1
    92    38    88    1
    93    38    89    1
    94    39    94    1
    95    39    95    1
    96    39    96    1
    97    40    41    1
    98    40    97    1
    99    40    98    1
   100    41    43    1
   101    41    99    1
   102    42    44    1
   103    42   100    1
   104    43    46    1
   105    43    47    1
   106    44    45    1
   107    44   102    1
   108    45    49    1
   109    45   103    1
   110    46   104    1
   111    46   105    1
   112    46   106    1
   113    47   107    1
   114    47   108    1
   115    47   109    1
   116    48    49    1
   117    48    50    1
   118    48   110    1
   119    49   111    1
   120    50   113    1
   121    50   114    1
   122    51    52    1
   123    51   115    1
   124    52    53    1
   125    52   118    1
   126    53    55    1
   127    53   120    1
   128    54    55    1
   129    54    56    1
   130    54   121    1
   131    55   122    1
   132    56   124    1
   133    56   125    1
   134    56   126    1
