@<TRIPOS>MOLECULE
IMPHY017652
 27 27 0 0 0
SMALL
GASTEIGER

@<TRIPOS>ATOM
      1 O           4.7320    2.4330    0.0000 O.2     1  UNL1       -0.2963
      2 C           3.0000   -1.5670    0.0000 C.3     1  UNL1       -0.0312
      3 C           3.8660   -2.0670    0.0000 C.3     1  UNL1       -0.0473
      4 C           3.0000   -0.5670    0.0000 C.3     1  UNL1       -0.0262
      5 C           4.7320   -1.5670    0.0000 C.3     1  UNL1       -0.0489
      6 C           4.7320   -0.5670    0.0000 C.3     1  UNL1       -0.0313
      7 C           3.8660   -0.0670    0.0000 C.2     1  UNL1       -0.0660
      8 C           2.5000   -2.4330    0.0000 C.3     1  UNL1       -0.0595
      9 C           2.0000   -1.5670    0.0000 C.3     1  UNL1       -0.0595
     10 C           3.8660    0.9330    0.0000 C.2     1  UNL1       -0.0232
     11 C           4.7320    1.4330    0.0000 C.2     1  UNL1        0.1431
     12 H           3.4675   -2.5419    0.0000 H       1  UNL1        0.0271
     13 H           4.2646   -2.5419    0.0000 H       1  UNL1        0.0271
     14 H           2.7880    0.0156    0.0000 H       1  UNL1        0.0315
     15 H           2.3894   -0.6746    0.0000 H       1  UNL1        0.0315
     16 H           4.9441   -2.1496    0.0000 H       1  UNL1        0.0268
     17 H           5.3426   -1.4593    0.0000 H       1  UNL1        0.0268
     18 H           5.3426   -0.6746    0.0000 H       1  UNL1        0.0310
     19 H           4.9441    0.0156    0.0000 H       1  UNL1        0.0310
     20 H           1.9631   -2.1230    0.0000 H       1  UNL1        0.0235
     21 H           2.1900   -2.9700    0.0000 H       1  UNL1        0.0235
     22 H           3.0369   -2.7430    0.0000 H       1  UNL1        0.0235
     23 H           2.0000   -0.9470    0.0000 H       1  UNL1        0.0235
     24 H           1.3800   -1.5670    0.0000 H       1  UNL1        0.0235
     25 H           2.0000   -2.1870    0.0000 H       1  UNL1        0.0235
     26 H           3.3291    1.2430    0.0000 H       1  UNL1        0.0649
     27 H           5.2690    1.1230    0.0000 H       1  UNL1        0.1075
@<TRIPOS>BOND
     1     1    11    2
     2     2     3    1
     3     2     4    1
     4     2     8    1
     5     2     9    1
     6     3     5    1
     7     3    12    1
     8     3    13    1
     9     4     7    1
    10     4    14    1
    11     4    15    1
    12     5     6    1
    13     5    16    1
    14     5    17    1
    15     6     7    1
    16     6    18    1
    17     6    19    1
    18     7    10    2
    19     8    20    1
    20     8    21    1
    21     8    22    1
    22     9    23    1
    23     9    24    1
    24     9    25    1
    25    10    11    1
    26    10    26    1
    27    11    27    1
