@<TRIPOS>MOLECULE
IMPHY008099
 81 83 0 0 0
SMALL
GASTEIGER

@<TRIPOS>ATOM
      1 O           8.3719    2.2521    0.0000 O.3     1  UNL1       -0.3842
      2 O           7.6208   -0.9961    0.0000 O.3     1  UNL1       -0.4569
      3 O           8.4824    3.0969    0.0000 O.3     1  UNL1       -0.4580
      4 O           4.5292   -0.7832    0.0000 O.3     1  UNL1       -0.4570
      5 O           2.4384    1.9415    0.0000 O.3     1  UNL1       -0.3908
      6 O           9.3212   -1.3255    0.0000 O.2     1  UNL1       -0.2450
      7 O           7.6164    4.5969    0.0000 O.2     1  UNL1       -0.2512
      8 O           2.7971   -0.7832    0.0000 O.2     1  UNL1       -0.2511
      9 C           7.6164    1.5969    0.0000 C.3     1  UNL1        0.1132
     10 C           7.1272    0.7168    0.0000 C.3     1  UNL1        0.0472
     11 C           8.7183    0.4085    0.0000 C.3     1  UNL1       -0.0033
     12 C           8.5983    1.4022    0.0000 C.3     1  UNL1       -0.0138
     13 C           7.8110   -0.0143    0.0000 C.3     1  UNL1        0.1150
     14 C           7.6164    2.5969    0.0000 C.3     1  UNL1        0.1381
     15 C           6.7504    3.0969    0.0000 C.3     1  UNL1        0.0142
     16 C           6.2612    0.2168    0.0000 C.2     1  UNL1       -0.0722
     17 C           9.5924   -0.0773    0.0000 C.3     1  UNL1       -0.0589
     18 C           5.3952    0.7168    0.0000 C.2     1  UNL1       -0.0360
     19 C           5.7845    2.8381    0.0000 C.2     1  UNL1       -0.0809
     20 C           6.8809    4.0883    0.0000 C.3     1  UNL1       -0.0555
     21 C           4.5292    0.2168    0.0000 C.3     1  UNL1        0.1262
     22 C           4.1114    2.3898    0.0000 C.3     1  UNL1        0.0092
     23 C           3.6632    0.7168    0.0000 C.3     1  UNL1        0.0151
     24 C           3.4043    1.6827    0.0000 C.3     1  UNL1        0.0674
     25 C           5.0774    2.1310    0.0000 C.2     1  UNL1       -0.0795
     26 C           8.3759   -1.6517    0.0000 C.2     1  UNL1        0.3395
     27 C           6.0380    1.4828    0.0000 C.3     1  UNL1       -0.0403
     28 C           8.4824    4.0969    0.0000 C.2     1  UNL1        0.3043
     29 C           3.2454    2.8898    0.0000 C.3     1  UNL1       -0.0540
     30 C           4.1114    3.3898    0.0000 C.3     1  UNL1       -0.0540
     31 C           8.1857   -2.6334    0.0000 C.ar    1  UNL1        0.0590
     32 C           9.3485    4.5969    0.0000 C.3     1  UNL1        0.0332
     33 C           3.6632   -1.2832    0.0000 C.2     1  UNL1        0.3045
     34 C           7.2403   -2.9595    0.0000 C.ar    1  UNL1       -0.0478
     35 C           8.9408   -3.2890    0.0000 C.ar    1  UNL1       -0.0478
     36 C           3.6632   -2.2832    0.0000 C.3     1  UNL1        0.0333
     37 C           7.0501   -3.9413    0.0000 C.ar    1  UNL1       -0.0610
     38 C           8.7505   -4.2707    0.0000 C.ar    1  UNL1       -0.0610
     39 C           7.8052   -4.5969    0.0000 C.ar    1  UNL1       -0.0617
     40 H           7.0022   -0.1240    0.0000 H       1  UNL1        0.0408
     41 H           8.6962   -0.2111    0.0000 H       1  UNL1        0.0335
     42 H           9.2182    1.4115    0.0000 H       1  UNL1        0.0298
     43 H           8.6543    2.0197    0.0000 H       1  UNL1        0.0298
     44 H           8.2996   -0.3959    0.0000 H       1  UNL1        0.0743
     45 H           7.6164    3.2169    0.0000 H       1  UNL1        0.0769
     46 H           6.2843    3.5057    0.0000 H       1  UNL1        0.0377
     47 H           6.2612   -0.4032    0.0000 H       1  UNL1        0.0578
     48 H           9.2912   -0.6192    0.0000 H       1  UNL1        0.0234
     49 H          10.1343   -0.3785    0.0000 H       1  UNL1        0.0234
     50 H           9.8936    0.4646    0.0000 H       1  UNL1        0.0234
     51 H           8.9579    2.0496    0.0000 H       1  UNL1        0.2103
     52 H           5.4745    3.3750    0.0000 H       1  UNL1        0.0573
     53 H           7.4956    4.0074    0.0000 H       1  UNL1        0.0237
     54 H           6.9618    4.7030    0.0000 H       1  UNL1        0.0237
     55 H           6.2662    4.1693    0.0000 H       1  UNL1        0.0237
     56 H           5.0661   -0.0932    0.0000 H       1  UNL1        0.0783
     57 H           3.0431    0.7168    0.0000 H       1  UNL1        0.0329
     58 H           3.5027    0.1179    0.0000 H       1  UNL1        0.0329
     59 H           3.2439    2.2816    0.0000 H       1  UNL1        0.0603
     60 H           5.4330    1.6231    0.0000 H       1  UNL1        0.0575
     61 H           6.5129    1.0843    0.0000 H       1  UNL1        0.0276
     62 H           6.4365    1.9577    0.0000 H       1  UNL1        0.0276
     63 H           5.5630    1.8813    0.0000 H       1  UNL1        0.0276
     64 H           3.5554    3.4267    0.0000 H       1  UNL1        0.0239
     65 H           2.7085    3.1998    0.0000 H       1  UNL1        0.0239
     66 H           2.9354    2.3528    0.0000 H       1  UNL1        0.0239
     67 H           4.7314    3.3898    0.0000 H       1  UNL1        0.0239
     68 H           4.1114    4.0098    0.0000 H       1  UNL1        0.0239
     69 H           3.4914    3.3898    0.0000 H       1  UNL1        0.0239
     70 H           2.0000    1.5031    0.0000 H       1  UNL1        0.2098
     71 H           9.6585    4.0600    0.0000 H       1  UNL1        0.0342
     72 H           9.8854    4.9069    0.0000 H       1  UNL1        0.0342
     73 H           9.0385    5.1338    0.0000 H       1  UNL1        0.0342
     74 H           6.7722   -2.5531    0.0000 H       1  UNL1        0.0626
     75 H           9.5269   -3.0868    0.0000 H       1  UNL1        0.0626
     76 H           3.0431   -2.2832    0.0000 H       1  UNL1        0.0342
     77 H           3.6632   -2.9032    0.0000 H       1  UNL1        0.0342
     78 H           4.2832   -2.2832    0.0000 H       1  UNL1        0.0342
     79 H           6.4640   -4.1435    0.0000 H       1  UNL1        0.0618
     80 H           9.2187   -4.6772    0.0000 H       1  UNL1        0.0618
     81 H           7.6873   -5.2056    0.0000 H       1  UNL1        0.0618
@<TRIPOS>BOND
     1     9     1    1
     2     1    51    1
     3    13     2    1
     4     2    26    1
     5    14     3    1
     6     3    28    1
     7    21     4    1
     8     4    33    1
     9    24     5    1
    10     5    70    1
    11     6    26    2
    12     7    28    2
    13     8    33    2
    14     9    10    1
    15     9    12    1
    16     9    14    1
    17    10    13    1
    18    10    16    1
    19    10    40    1
    20    11    12    1
    21    11    13    1
    22    11    17    1
    23    11    41    1
    24    12    42    1
    25    12    43    1
    26    13    44    1
    27    14    15    1
    28    14    45    1
    29    15    19    1
    30    15    20    1
    31    15    46    1
    32    16    18    2
    33    16    47    1
    34    17    48    1
    35    17    49    1
    36    17    50    1
    37    18    21    1
    38    18    27    1
    39    19    25    2
    40    19    52    1
    41    20    53    1
    42    20    54    1
    43    20    55    1
    44    21    23    1
    45    21    56    1
    46    22    24    1
    47    22    25    1
    48    22    29    1
    49    22    30    1
    50    23    24    1
    51    23    57    1
    52    23    58    1
    53    24    59    1
    54    25    60    1
    55    26    31    1
    56    27    61    1
    57    27    62    1
    58    27    63    1
    59    28    32    1
    60    29    64    1
    61    29    65    1
    62    29    66    1
    63    30    67    1
    64    30    68    1
    65    30    69    1
    66    31    34   ar
    67    31    35   ar
    68    32    71    1
    69    32    72    1
    70    32    73    1
    71    33    36    1
    72    34    37   ar
    73    34    74    1
    74    35    38   ar
    75    35    75    1
    76    36    76    1
    77    36    77    1
    78    36    78    1
    79    37    39   ar
    80    37    79    1
    81    38    39   ar
    82    38    80    1
    83    39    81    1
