@<TRIPOS>MOLECULE
IMPHY017896
 16 15 0 0 0
SMALL
GASTEIGER

@<TRIPOS>ATOM
      1 O           5.4641    0.2500    0.0000 O.3     1  UNL1       -0.3944
      2 C           3.7320    0.2500    0.0000 C.3     1  UNL1       -0.0028
      3 C           4.5981    0.7500    0.0000 C.3     1  UNL1        0.0502
      4 C           3.7320   -0.7500    0.0000 C.3     1  UNL1       -0.0569
      5 C           2.8660    0.7500    0.0000 C.2     1  UNL1       -0.0861
      6 C           2.0000    0.2500    0.0000 C.2     1  UNL1       -0.1023
      7 H           4.2690   -0.0600    0.0000 H       1  UNL1        0.0362
      8 H           4.9966    1.2250    0.0000 H       1  UNL1        0.0563
      9 H           4.1996    1.2250    0.0000 H       1  UNL1        0.0563
     10 H           3.1120   -0.7500    0.0000 H       1  UNL1        0.0236
     11 H           3.7320   -1.3700    0.0000 H       1  UNL1        0.0236
     12 H           4.3520   -0.7500    0.0000 H       1  UNL1        0.0236
     13 H           2.8660    1.3700    0.0000 H       1  UNL1        0.0570
     14 H           6.0010    0.5600    0.0000 H       1  UNL1        0.2094
     15 H           1.4631    0.5600    0.0000 H       1  UNL1        0.0532
     16 H           2.0000   -0.3700    0.0000 H       1  UNL1        0.0532
@<TRIPOS>BOND
     1     1     3    1
     2     1    14    1
     3     2     3    1
     4     2     4    1
     5     2     5    1
     6     2     7    1
     7     3     8    1
     8     3     9    1
     9     4    10    1
    10     4    11    1
    11     4    12    1
    12     5     6    2
    13     5    13    1
    14     6    15    1
    15     6    16    1
