@<TRIPOS>MOLECULE
IMPHY003023
 39 41 0 0 0
SMALL
GASTEIGER

@<TRIPOS>ATOM
      1 O           3.7230   -0.4117    0.0000 O.3     1  UNL1       -0.4564
      2 O           7.2806    0.5298    0.0000 O.3     1  UNL1       -0.3872
      3 O           4.8930   -2.0150    0.0000 O.2     1  UNL1       -0.2966
      4 O           2.0000    0.0205    0.0000 O.2     1  UNL1       -0.2453
      5 C           5.4786   -0.3379    0.0000 C.3     1  UNL1        0.0923
      6 C           6.3796    0.0960    0.0000 C.3     1  UNL1        0.0845
      7 C           4.5777    0.0960    0.0000 C.3     1  UNL1        0.1250
      8 C           6.6021    1.0709    0.0000 C.3     1  UNL1       -0.0139
      9 C           7.0647   -0.6243    0.0000 C.3     1  UNL1       -0.0160
     10 C           4.3551    1.0709    0.0000 C.3     1  UNL1        0.0285
     11 C           5.6146   -1.3227    0.0000 C.2     1  UNL1        0.1456
     12 C           5.9786    1.8527    0.0000 C.3     1  UNL1       -0.0472
     13 C           6.5929   -1.4993    0.0000 C.3     1  UNL1        0.0092
     14 C           4.9786    1.8527    0.0000 C.3     1  UNL1       -0.0423
     15 C           4.5777   -0.7718    0.0000 C.3     1  UNL1       -0.0467
     16 C           7.5770    1.2934    0.0000 C.3     1  UNL1       -0.0598
     17 C           3.3648    1.1574    0.0000 C.2     1  UNL1        0.0361
     18 C           2.9749    0.2430    0.0000 C.2     1  UNL1        0.3353
     19 C           2.8504    2.0150    0.0000 C.2     1  UNL1       -0.0883
     20 H           5.2422    0.6259    0.0000 H       1  UNL1        0.0751
     21 H           6.8069    1.6561    0.0000 H       1  UNL1        0.0326
     22 H           7.5765   -0.9743    0.0000 H       1  UNL1        0.0297
     23 H           7.4666   -0.1522    0.0000 H       1  UNL1        0.0297
     24 H           4.0200    1.8520    0.0000 H       1  UNL1        0.0387
     25 H           6.5372    2.1217    0.0000 H       1  UNL1        0.0269
     26 H           5.8407    2.4572    0.0000 H       1  UNL1        0.0269
     27 H           6.4192   -2.0945    0.0000 H       1  UNL1        0.0343
     28 H           7.1665   -1.7346    0.0000 H       1  UNL1        0.0343
     29 H           5.1166    2.4572    0.0000 H       1  UNL1        0.0272
     30 H           4.4200    2.1217    0.0000 H       1  UNL1        0.0272
     31 H           4.3086   -0.2132    0.0000 H       1  UNL1        0.0241
     32 H           4.0191   -1.0408    0.0000 H       1  UNL1        0.0241
     33 H           4.8467   -1.3304    0.0000 H       1  UNL1        0.0241
     34 H           7.7150    0.6889    0.0000 H       1  UNL1        0.0233
     35 H           8.1815    1.4314    0.0000 H       1  UNL1        0.0233
     36 H           7.4391    1.8979    0.0000 H       1  UNL1        0.0233
     37 H           7.7928    0.1806    0.0000 H       1  UNL1        0.2102
     38 H           3.1514    2.5570    0.0000 H       1  UNL1        0.0540
     39 H           2.2305    2.0046    0.0000 H       1  UNL1        0.0540
@<TRIPOS>BOND
     1     1     7    1
     2     1    18    1
     3     6     2    1
     4     2    37    1
     5     3    11    2
     6     4    18    2
     7     5     6    1
     8     5     7    1
     9     5    11    1
    10     5    15    1
    11     6     8    1
    12     6     9    1
    13     7    10    1
    14     7    20    1
    15     8    12    1
    16     8    16    1
    17     8    21    1
    18     9    13    1
    19     9    22    1
    20     9    23    1
    21    10    14    1
    22    10    17    1
    23    10    24    1
    24    11    13    1
    25    12    14    1
    26    12    25    1
    27    12    26    1
    28    13    27    1
    29    13    28    1
    30    14    29    1
    31    14    30    1
    32    15    31    1
    33    15    32    1
    34    15    33    1
    35    16    34    1
    36    16    35    1
    37    16    36    1
    38    17    18    1
    39    17    19    2
    40    19    38    1
    41    19    39    1
