@<TRIPOS>MOLECULE
IMPHY003672
 86 93 0 0 0
SMALL
GASTEIGER

@<TRIPOS>ATOM
      1 O           6.9006    1.1866    0.0000 O.3     1  UNL1       -0.4808
      2 O           8.2416   -2.3764    0.0000 O.3     1  UNL1       -0.4808
      3 O           5.1304   -0.8722    0.0000 O.3     1  UNL1       -0.3868
      4 O          10.4366    1.1588    0.0000 O.3     1  UNL1       -0.4253
      5 O           9.0026   -1.7877    0.0000 O.3     1  UNL1       -0.5062
      6 O           9.2301   -4.9052    0.0000 O.3     1  UNL1       -0.3875
      7 O           4.6431   -1.6802    0.0000 O.3     1  UNL1       -0.5062
      8 O           5.5760   -4.6570    0.0000 O.3     1  UNL1       -0.5063
      9 O          11.3125    2.6970    0.0000 O.2     1  UNL1       -0.2504
     10 O           4.2740    3.6794    0.0000 O.3     1  UNL1       -0.5033
     11 O           2.5381    2.6861    0.0000 O.3     1  UNL1       -0.5033
     12 O           6.8778    5.1732    0.0000 O.3     1  UNL1       -0.5033
     13 O          11.5454   -0.8939    0.0000 O.3     1  UNL1       -0.5033
     14 O           5.1575    4.1533    0.0000 O.3     1  UNL1       -0.5033
     15 O          12.8544   -2.4060    0.0000 O.3     1  UNL1       -0.5033
     16 C           6.9006   -0.8827    0.0000 C.3     1  UNL1        0.0528
     17 C           5.9945   -0.3689    0.0000 C.3     1  UNL1        0.1074
     18 C           7.7945   -0.3481    0.0000 C.ar    1  UNL1        0.0463
     19 C           5.9945    0.6728    0.0000 C.3     1  UNL1        0.1519
     20 C           6.5694   -1.8263    0.0000 C.ar    1  UNL1        0.0463
     21 C           7.7945    0.6519    0.0000 C.ar    1  UNL1        0.1361
     22 C           8.6605    1.1520    0.0000 C.ar    1  UNL1        0.0450
     23 C           7.2210   -2.5849    0.0000 C.ar    1  UNL1        0.1355
     24 C           8.6445    2.1935    0.0000 C.3     1  UNL1        0.0264
     25 C           6.8899   -3.5284    0.0000 C.ar    1  UNL1        0.0387
     26 C           8.6605   -0.8481    0.0000 C.ar    1  UNL1        0.1277
     27 C           7.5564   -4.3290    0.0000 C.3     1  UNL1        0.0092
     28 C           8.5815   -4.1441    0.0000 C.3     1  UNL1        0.1004
     29 C           8.9264   -3.1613    0.0000 C.3     1  UNL1        0.1513
     30 C           5.1304    1.1761    0.0000 C.ar    1  UNL1       -0.0012
     31 C           9.5266    0.6519    0.0000 C.ar    1  UNL1        0.1423
     32 C           5.5867   -2.0114    0.0000 C.ar    1  UNL1        0.1277
     33 C           9.5425    2.7212    0.0000 C.3     1  UNL1        0.0564
     34 C           9.5266   -0.3481    0.0000 C.ar    1  UNL1        0.0231
     35 C           5.9072   -3.7135    0.0000 C.ar    1  UNL1        0.1271
     36 C           7.7727    2.6834    0.0000 C.ar    1  UNL1       -0.0355
     37 C           5.2556   -2.9549    0.0000 C.ar    1  UNL1        0.0221
     38 C           9.9084   -2.9724    0.0000 C.ar    1  UNL1       -0.0012
     39 C          10.4446    2.2004    0.0000 C.2     1  UNL1        0.3132
     40 C           5.1343    2.1761    0.0000 C.ar    1  UNL1       -0.0098
     41 C           4.2625    0.6794    0.0000 C.ar    1  UNL1       -0.0513
     42 C           7.7612    3.6833    0.0000 C.ar    1  UNL1       -0.0128
     43 C           6.9125    2.1734    0.0000 C.ar    1  UNL1       -0.0543
     44 C           4.2702    2.6794    0.0000 C.ar    1  UNL1        0.1586
     45 C           3.3984    1.1828    0.0000 C.ar    1  UNL1       -0.0162
     46 C          10.2359   -2.0276    0.0000 C.ar    1  UNL1       -0.0098
     47 C          10.5629   -3.7285    0.0000 C.ar    1  UNL1       -0.0513
     48 C           3.4022    2.1828    0.0000 C.ar    1  UNL1        0.1582
     49 C           6.8894    4.1733    0.0000 C.ar    1  UNL1        0.1585
     50 C           6.0408    2.6634    0.0000 C.ar    1  UNL1       -0.0163
     51 C          11.2179   -1.8388    0.0000 C.ar    1  UNL1        0.1586
     52 C           6.0292    3.6633    0.0000 C.ar    1  UNL1        0.1582
     53 C          11.5449   -3.5397    0.0000 C.ar    1  UNL1       -0.0162
     54 C          11.8724   -2.5948    0.0000 C.ar    1  UNL1        0.1582
     55 H           6.1047   -1.1811    0.0000 H       1  UNL1        0.0429
     56 H           5.4570   -0.0599    0.0000 H       1  UNL1        0.0643
     57 H           5.9981    1.2928    0.0000 H       1  UNL1        0.0811
     58 H           8.6385    2.8134    0.0000 H       1  UNL1        0.0405
     59 H           7.0190   -4.6383    0.0000 H       1  UNL1        0.0342
     60 H           7.7692   -4.9113    0.0000 H       1  UNL1        0.0342
     61 H           9.1910   -4.0306    0.0000 H       1  UNL1        0.0637
     62 H           9.1283   -2.5751    0.0000 H       1  UNL1        0.0811
     63 H           9.9398    3.1972    0.0000 H       1  UNL1        0.0387
     64 H           9.1415    3.1941    0.0000 H       1  UNL1        0.0387
     65 H          10.0635   -0.6581    0.0000 H       1  UNL1        0.0691
     66 H           4.5923   -0.5643    0.0000 H       1  UNL1        0.2100
     67 H           4.6463   -3.0697    0.0000 H       1  UNL1        0.0691
     68 H           5.6724    2.4840    0.0000 H       1  UNL1        0.0659
     69 H           4.2601    0.0594    0.0000 H       1  UNL1        0.0623
     70 H           9.6131   -1.8954    0.0000 H       1  UNL1        0.2921
     71 H           9.0226   -5.4894    0.0000 H       1  UNL1        0.2100
     72 H           8.2945    3.9995    0.0000 H       1  UNL1        0.0658
     73 H           6.9197    1.5535    0.0000 H       1  UNL1        0.0622
     74 H           4.1728   -2.0842    0.0000 H       1  UNL1        0.2921
     75 H           2.8602    0.8748    0.0000 H       1  UNL1        0.0655
     76 H           9.8301   -1.5588    0.0000 H       1  UNL1        0.0659
     77 H          10.3599   -4.3143    0.0000 H       1  UNL1        0.0623
     78 H           4.9668   -4.7718    0.0000 H       1  UNL1        0.2921
     79 H           5.5075    2.3472    0.0000 H       1  UNL1        0.0655
     80 H          11.9507   -4.0084    0.0000 H       1  UNL1        0.0655
     81 H           3.7383    3.9915    0.0000 H       1  UNL1        0.2923
     82 H           2.0000    2.3782    0.0000 H       1  UNL1        0.2923
     83 H           7.4112    5.4894    0.0000 H       1  UNL1        0.2923
     84 H          12.1542   -0.7769    0.0000 H       1  UNL1        0.2923
     85 H           5.1503    4.7732    0.0000 H       1  UNL1        0.2923
     86 H          13.2602   -2.8748    0.0000 H       1  UNL1        0.2923
@<TRIPOS>BOND
     1     1    19    1
     2     1    21    1
     3     2    23    1
     4     2    29    1
     5    17     3    1
     6     3    66    1
     7     4    31    1
     8     4    39    1
     9     5    26    1
    10     5    70    1
    11    28     6    1
    12     6    71    1
    13     7    32    1
    14     7    74    1
    15     8    35    1
    16     8    78    1
    17     9    39    2
    18    10    44    1
    19    10    81    1
    20    11    48    1
    21    11    82    1
    22    12    49    1
    23    12    83    1
    24    13    51    1
    25    13    84    1
    26    14    52    1
    27    14    85    1
    28    15    54    1
    29    15    86    1
    30    16    17    1
    31    16    18    1
    32    16    20    1
    33    16    55    1
    34    17    19    1
    35    17    56    1
    36    18    21   ar
    37    18    26   ar
    38    19    30    1
    39    19    57    1
    40    20    23   ar
    41    20    32   ar
    42    21    22   ar
    43    22    24    1
    44    22    31   ar
    45    23    25   ar
    46    24    33    1
    47    24    36    1
    48    24    58    1
    49    25    27    1
    50    25    35   ar
    51    26    34   ar
    52    27    28    1
    53    27    59    1
    54    27    60    1
    55    28    29    1
    56    28    61    1
    57    29    38    1
    58    29    62    1
    59    30    40   ar
    60    30    41   ar
    61    31    34   ar
    62    32    37   ar
    63    33    39    1
    64    33    63    1
    65    33    64    1
    66    34    65    1
    67    35    37   ar
    68    36    42   ar
    69    36    43   ar
    70    37    67    1
    71    38    46   ar
    72    38    47   ar
    73    40    44   ar
    74    40    68    1
    75    41    45   ar
    76    41    69    1
    77    42    49   ar
    78    42    72    1
    79    43    50   ar
    80    43    73    1
    81    44    48   ar
    82    45    48   ar
    83    45    75    1
    84    46    51   ar
    85    46    76    1
    86    47    53   ar
    87    47    77    1
    88    49    52   ar
    89    50    52   ar
    90    50    79    1
    91    51    54   ar
    92    53    54   ar
    93    53    80    1
