@<TRIPOS>MOLECULE
IMPHY017493
 31 30 0 0 0
SMALL
GASTEIGER

@<TRIPOS>ATOM
      1 O           6.3301   -1.0950    0.0000 O.3     1  UNL1       -0.3915
      2 C           6.3301   -0.0950    0.0000 C.3     1  UNL1        0.0576
      3 C           5.4641    0.4050    0.0000 C.3     1  UNL1       -0.0261
      4 C           7.1962    0.4050    0.0000 C.3     1  UNL1       -0.0206
      5 C           4.5981   -0.0950    0.0000 C.3     1  UNL1       -0.0447
      6 C           3.7320    0.4050    0.0000 C.3     1  UNL1       -0.0259
      7 C           8.0622   -0.0950    0.0000 C.3     1  UNL1       -0.0603
      8 C           7.1962    1.4050    0.0000 C.3     1  UNL1       -0.0603
      9 C           3.7320    1.4050    0.0000 C.3     1  UNL1       -0.0590
     10 C           2.8660   -0.0950    0.0000 C.2     1  UNL1       -0.0883
     11 C           2.0000    0.4050    0.0000 C.2     1  UNL1       -0.1024
     12 H           6.8671   -0.4050    0.0000 H       1  UNL1        0.0596
     13 H           5.8626    0.8799    0.0000 H       1  UNL1        0.0290
     14 H           5.0656    0.8799    0.0000 H       1  UNL1        0.0290
     15 H           6.6592    0.7150    0.0000 H       1  UNL1        0.0320
     16 H           4.1996   -0.5699    0.0000 H       1  UNL1        0.0272
     17 H           4.9966   -0.5699    0.0000 H       1  UNL1        0.0272
     18 H           4.2690    0.7150    0.0000 H       1  UNL1        0.0340
     19 H           7.7522   -0.6319    0.0000 H       1  UNL1        0.0233
     20 H           8.5991   -0.4050    0.0000 H       1  UNL1        0.0233
     21 H           8.3722    0.4419    0.0000 H       1  UNL1        0.0233
     22 H           7.8162    1.4050    0.0000 H       1  UNL1        0.0233
     23 H           7.1962    2.0250    0.0000 H       1  UNL1        0.0233
     24 H           6.5762    1.4050    0.0000 H       1  UNL1        0.0233
     25 H           4.3520    1.4050    0.0000 H       1  UNL1        0.0235
     26 H           3.7320    2.0250    0.0000 H       1  UNL1        0.0235
     27 H           3.1120    1.4050    0.0000 H       1  UNL1        0.0235
     28 H           2.8660   -0.7150    0.0000 H       1  UNL1        0.0569
     29 H           5.7932   -1.4050    0.0000 H       1  UNL1        0.2098
     30 H           2.0000    1.0250    0.0000 H       1  UNL1        0.0532
     31 H           1.4631    0.0950    0.0000 H       1  UNL1        0.0532
@<TRIPOS>BOND
     1     1     2    1
     2     1    29    1
     3     2     3    1
     4     2     4    1
     5     2    12    1
     6     3     5    1
     7     3    13    1
     8     3    14    1
     9     4     7    1
    10     4     8    1
    11     4    15    1
    12     5     6    1
    13     5    16    1
    14     5    17    1
    15     6     9    1
    16     6    10    1
    17     6    18    1
    18     7    19    1
    19     7    20    1
    20     7    21    1
    21     8    22    1
    22     8    23    1
    23     8    24    1
    24     9    25    1
    25     9    26    1
    26     9    27    1
    27    10    11    2
    28    10    28    1
    29    11    30    1
    30    11    31    1
