@<TRIPOS>MOLECULE
IMPHY009745
 33 33 0 0 0
SMALL
GASTEIGER

@<TRIPOS>ATOM
      1 O           4.5981    2.2500    0.0000 O.3     1  UNL1       -0.4568
      2 O           3.7320   -2.2500    0.0000 O.3     1  UNL1       -0.4260
      3 O           3.7320    3.7500    0.0000 O.2     1  UNL1       -0.2511
      4 O           2.0000   -2.2500    0.0000 O.2     1  UNL1       -0.2507
      5 C           3.7320    1.7500    0.0000 C.3     1  UNL1        0.1278
      6 C           2.8660    2.2500    0.0000 C.3     1  UNL1       -0.0142
      7 C           3.7320    0.7500    0.0000 C.ar    1  UNL1       -0.0071
      8 C           2.8660    3.2500    0.0000 C.3     1  UNL1       -0.0616
      9 C           2.8660    0.2500    0.0000 C.ar    1  UNL1       -0.0516
     10 C           4.5981    0.2500    0.0000 C.ar    1  UNL1       -0.0516
     11 C           2.8660   -0.7500    0.0000 C.ar    1  UNL1       -0.0189
     12 C           4.5981   -0.7500    0.0000 C.ar    1  UNL1       -0.0189
     13 C           3.7320   -1.2500    0.0000 C.ar    1  UNL1        0.1316
     14 C           4.5981    3.2500    0.0000 C.2     1  UNL1        0.3045
     15 C           5.4641    3.7500    0.0000 C.3     1  UNL1        0.0333
     16 C           2.8660   -2.7500    0.0000 C.2     1  UNL1        0.3092
     17 C           2.8660   -3.7500    0.0000 C.3     1  UNL1        0.0336
     18 H           3.7320    2.3700    0.0000 H       1  UNL1        0.0785
     19 H           2.2554    2.3577    0.0000 H       1  UNL1        0.0302
     20 H           2.6540    1.6674    0.0000 H       1  UNL1        0.0302
     21 H           3.4860    3.2500    0.0000 H       1  UNL1        0.0231
     22 H           2.8660    3.8700    0.0000 H       1  UNL1        0.0231
     23 H           2.2460    3.2500    0.0000 H       1  UNL1        0.0231
     24 H           2.3291    0.5600    0.0000 H       1  UNL1        0.0623
     25 H           5.1350    0.5600    0.0000 H       1  UNL1        0.0623
     26 H           2.3291   -1.0600    0.0000 H       1  UNL1        0.0654
     27 H           5.1350   -1.0600    0.0000 H       1  UNL1        0.0654
     28 H           5.7741    3.2131    0.0000 H       1  UNL1        0.0342
     29 H           6.0010    4.0600    0.0000 H       1  UNL1        0.0342
     30 H           5.1541    4.2869    0.0000 H       1  UNL1        0.0342
     31 H           2.2460   -3.7500    0.0000 H       1  UNL1        0.0342
     32 H           2.8660   -4.3700    0.0000 H       1  UNL1        0.0342
     33 H           3.4860   -3.7500    0.0000 H       1  UNL1        0.0342
@<TRIPOS>BOND
     1     1     5    1
     2     1    14    1
     3     2    13    1
     4     2    16    1
     5     3    14    2
     6     4    16    2
     7     5     6    1
     8     5     7    1
     9     5    18    1
    10     6     8    1
    11     6    19    1
    12     6    20    1
    13     7     9   ar
    14     7    10   ar
    15     8    21    1
    16     8    22    1
    17     8    23    1
    18     9    11   ar
    19     9    24    1
    20    10    12   ar
    21    10    25    1
    22    11    13   ar
    23    11    26    1
    24    12    13   ar
    25    12    27    1
    26    14    15    1
    27    15    28    1
    28    15    29    1
    29    15    30    1
    30    16    17    1
    31    17    31    1
    32    17    32    1
    33    17    33    1
