@<TRIPOS>MOLECULE
IMPHY004442
 27 29 0 0 0
SMALL
GASTEIGER

@<TRIPOS>ATOM
      1 O           2.0000   -0.0608    0.0000 O.2     1  UNL1       -0.2878
      2 N           5.5047    0.8518    0.0000 N.ar    1  UNL1       -0.3531
      3 N           8.0321   -0.2724    0.0000 N.pl3   1  UNL1       -0.3454
      4 C           6.0047   -0.6871    0.0000 C.ar    1  UNL1       -0.0120
      5 C           6.6897   -1.4718    0.0000 C.3     1  UNL1       -0.0095
      6 C           6.3137    0.2640    0.0000 C.ar    1  UNL1        0.0602
      7 C           5.0047   -0.6871    0.0000 C.ar    1  UNL1        0.0037
      8 C           7.7102   -1.2631    0.0000 C.3     1  UNL1        0.0130
      9 C           7.3291    0.4963    0.0000 C.2     1  UNL1        0.0247
     10 C           4.6957    0.2640    0.0000 C.ar    1  UNL1        0.0508
     11 C           4.3197   -1.4718    0.0000 C.2     1  UNL1       -0.0487
     12 C           3.6803    0.4963    0.0000 C.2     1  UNL1        0.0090
     13 C           7.6271    1.4508    0.0000 C.3     1  UNL1       -0.0248
     14 C           3.2992   -1.2631    0.0000 C.2     1  UNL1       -0.0142
     15 C           2.9773   -0.2724    0.0000 C.2     1  UNL1        0.1810
     16 H           6.1597   -1.7936    0.0000 H       1  UNL1        0.0329
     17 H           6.9160   -2.0490    0.0000 H       1  UNL1        0.0329
     18 H           7.7286   -1.8828    0.0000 H       1  UNL1        0.0464
     19 H           8.3239   -1.3510    0.0000 H       1  UNL1        0.0464
     20 H           5.5047    1.4718    0.0000 H       1  UNL1        0.1659
     21 H           8.6380   -0.1412    0.0000 H       1  UNL1        0.1458
     22 H           4.5181   -2.0592    0.0000 H       1  UNL1        0.0625
     23 H           3.4955    1.0881    0.0000 H       1  UNL1        0.0677
     24 H           8.2190    1.2661    0.0000 H       1  UNL1        0.0290
     25 H           7.8119    2.0426    0.0000 H       1  UNL1        0.0290
     26 H           7.0353    1.6356    0.0000 H       1  UNL1        0.0290
     27 H           2.8861   -1.7254    0.0000 H       1  UNL1        0.0656
@<TRIPOS>BOND
     1     1    15    2
     2     2     6   ar
     3     2    10   ar
     4     2    20    1
     5     3     8    1
     6     3     9    1
     7     3    21    1
     8     4     5    1
     9     4     6   ar
    10     4     7   ar
    11     5     8    1
    12     5    16    1
    13     5    17    1
    14     6     9    2
    15     7    10   ar
    16     7    11    1
    17     8    18    1
    18     8    19    1
    19     9    13    1
    20    10    12    2
    21    11    14    2
    22    11    22    1
    23    12    15    1
    24    12    23    1
    25    13    24    1
    26    13    25    1
    27    13    26    1
    28    14    15    1
    29    14    27    1
