@<TRIPOS>MOLECULE
IMPHY004678
 52 53 0 0 0
SMALL
GASTEIGER

@<TRIPOS>ATOM
      1 C           8.0627   -0.9400    0.0000 C.3     1  UNL1       -0.0250
      2 C           7.1962   -0.4400    0.0000 C.3     1  UNL1       -0.0283
      3 C           7.1962   -1.4400    0.0000 C.3     1  UNL1       -0.0139
      4 C           6.3301    0.0600    0.0000 C.3     1  UNL1       -0.0455
      5 C           8.5627   -1.8060    0.0000 C.3     1  UNL1       -0.0590
      6 C           8.5627   -0.0740    0.0000 C.3     1  UNL1       -0.0590
      7 C           6.3301   -1.9400    0.0000 C.2     1  UNL1       -0.0811
      8 C           6.3301    1.0600    0.0000 C.3     1  UNL1       -0.0317
      9 C           5.4641   -1.4400    0.0000 C.2     1  UNL1       -0.0760
     10 C           5.4641    1.5600    0.0000 C.2     1  UNL1       -0.0765
     11 C           4.5981   -1.9400    0.0000 C.3     1  UNL1       -0.0286
     12 C           5.4641   -0.4400    0.0000 C.3     1  UNL1       -0.0438
     13 C           4.5981    1.0600    0.0000 C.2     1  UNL1       -0.0847
     14 C           5.4641    2.5600    0.0000 C.3     1  UNL1       -0.0438
     15 C           3.7320   -1.4400    0.0000 C.3     1  UNL1       -0.0308
     16 C           3.7320    1.5600    0.0000 C.3     1  UNL1       -0.0308
     17 C           3.7320   -0.4400    0.0000 C.2     1  UNL1       -0.0847
     18 C           2.8660    1.0600    0.0000 C.3     1  UNL1       -0.0286
     19 C           2.8660    0.0600    0.0000 C.2     1  UNL1       -0.0762
     20 C           2.0000   -0.4400    0.0000 C.3     1  UNL1       -0.0438
     21 H           7.6211    0.2962    0.0000 H       1  UNL1        0.0312
     22 H           7.6211   -2.1762    0.0000 H       1  UNL1        0.0351
     23 H           5.7196    0.1677    0.0000 H       1  UNL1        0.0271
     24 H           6.1181   -0.5226    0.0000 H       1  UNL1        0.0271
     25 H           9.0996   -0.3840    0.0000 H       1  UNL1        0.0235
     26 H           8.8727    0.4630    0.0000 H       1  UNL1        0.0235
     27 H           8.0258    0.2360    0.0000 H       1  UNL1        0.0235
     28 H           8.0258   -2.1160    0.0000 H       1  UNL1        0.0235
     29 H           8.8727   -2.3430    0.0000 H       1  UNL1        0.0235
     30 H           9.0996   -1.4960    0.0000 H       1  UNL1        0.0235
     31 H           6.3301   -2.5600    0.0000 H       1  UNL1        0.0575
     32 H           6.9407    0.9523    0.0000 H       1  UNL1        0.0310
     33 H           6.5422    1.6426    0.0000 H       1  UNL1        0.0310
     34 H           4.1996   -2.4150    0.0000 H       1  UNL1        0.0313
     35 H           4.9966   -2.4150    0.0000 H       1  UNL1        0.0313
     36 H           6.0841   -0.4400    0.0000 H       1  UNL1        0.0274
     37 H           5.4641    0.1800    0.0000 H       1  UNL1        0.0274
     38 H           4.8441   -0.4400    0.0000 H       1  UNL1        0.0274
     39 H           4.5981    0.4400    0.0000 H       1  UNL1        0.0572
     40 H           6.0841    2.5600    0.0000 H       1  UNL1        0.0274
     41 H           5.4641    3.1800    0.0000 H       1  UNL1        0.0274
     42 H           4.8441    2.5600    0.0000 H       1  UNL1        0.0274
     43 H           3.1215   -1.3323    0.0000 H       1  UNL1        0.0310
     44 H           3.5200   -2.0226    0.0000 H       1  UNL1        0.0310
     45 H           4.1306    2.0349    0.0000 H       1  UNL1        0.0310
     46 H           3.3335    2.0349    0.0000 H       1  UNL1        0.0310
     47 H           4.2690   -0.1300    0.0000 H       1  UNL1        0.0572
     48 H           2.6540    1.6426    0.0000 H       1  UNL1        0.0313
     49 H           2.2554    0.9523    0.0000 H       1  UNL1        0.0313
     50 H           1.6900    0.0969    0.0000 H       1  UNL1        0.0274
     51 H           1.4631   -0.7500    0.0000 H       1  UNL1        0.0274
     52 H           2.3100   -0.9769    0.0000 H       1  UNL1        0.0274
@<TRIPOS>BOND
     1     1     2    1
     2     1     3    1
     3     1     5    1
     4     1     6    1
     5     2     3    1
     6     2     4    1
     7     2    21    1
     8     3     7    1
     9     3    22    1
    10     4     8    1
    11     4    23    1
    12     4    24    1
    13     5    28    1
    14     5    29    1
    15     5    30    1
    16     6    25    1
    17     6    26    1
    18     6    27    1
    19     7     9    2
    20     7    31    1
    21     8    10    1
    22     8    32    1
    23     8    33    1
    24     9    11    1
    25     9    12    1
    26    10    13    2
    27    10    14    1
    28    11    15    1
    29    11    34    1
    30    11    35    1
    31    12    36    1
    32    12    37    1
    33    12    38    1
    34    13    16    1
    35    13    39    1
    36    14    40    1
    37    14    41    1
    38    14    42    1
    39    15    17    1
    40    15    43    1
    41    15    44    1
    42    16    18    1
    43    16    45    1
    44    16    46    1
    45    17    19    2
    46    17    47    1
    47    18    19    1
    48    18    48    1
    49    18    49    1
    50    19    20    1
    51    20    50    1
    52    20    51    1
    53    20    52    1
