@<TRIPOS>MOLECULE
IMPHY016243
 36 35 0 0 0
SMALL
GASTEIGER

@<TRIPOS>ATOM
      1 O           7.1962    0.0000    0.0000 O.3     1  UNL1       -0.4618
      2 O           6.3301    1.5000    0.0000 O.2     1  UNL1       -0.2505
      3 O           9.7942    0.5000    0.0000 O.3     1  UNL1       -0.3887
      4 C           5.4641    0.0000    0.0000 C.3     1  UNL1        0.0562
      5 C           4.5981    0.5000    0.0000 C.3     1  UNL1       -0.0401
      6 C           3.7320   -0.0000    0.0000 C.3     1  UNL1       -0.0526
      7 C           5.4641   -1.0000    0.0000 C.3     1  UNL1       -0.0430
      8 C           2.8660    0.5000    0.0000 C.3     1  UNL1       -0.0559
      9 C           6.3301    0.5000    0.0000 C.2     1  UNL1        0.3103
     10 C           4.5981   -1.5000    0.0000 C.3     1  UNL1       -0.0645
     11 C           2.0000   -0.0000    0.0000 C.3     1  UNL1       -0.0653
     12 C           8.0622    0.5000    0.0000 C.3     1  UNL1        0.1180
     13 C           8.9282   -0.0000    0.0000 C.3     1  UNL1        0.0865
     14 C           8.9282   -1.0000    0.0000 C.3     1  UNL1       -0.0357
     15 H           5.4641    0.6200    0.0000 H       1  UNL1        0.0413
     16 H           4.9966    0.9749    0.0000 H       1  UNL1        0.0273
     17 H           4.1996    0.9749    0.0000 H       1  UNL1        0.0273
     18 H           3.3335   -0.4749    0.0000 H       1  UNL1        0.0265
     19 H           4.1306   -0.4749    0.0000 H       1  UNL1        0.0265
     20 H           5.6762   -1.5826    0.0000 H       1  UNL1        0.0270
     21 H           6.0747   -0.8923    0.0000 H       1  UNL1        0.0270
     22 H           3.2646    0.9749    0.0000 H       1  UNL1        0.0263
     23 H           2.4675    0.9749    0.0000 H       1  UNL1        0.0263
     24 H           4.2881   -0.9631    0.0000 H       1  UNL1        0.0230
     25 H           4.0611   -1.8100    0.0000 H       1  UNL1        0.0230
     26 H           4.9081   -2.0369    0.0000 H       1  UNL1        0.0230
     27 H           1.6900    0.5369    0.0000 H       1  UNL1        0.0230
     28 H           1.4631   -0.3100    0.0000 H       1  UNL1        0.0230
     29 H           2.3100   -0.5369    0.0000 H       1  UNL1        0.0230
     30 H           8.4607    0.9749    0.0000 H       1  UNL1        0.0723
     31 H           7.6636    0.9749    0.0000 H       1  UNL1        0.0723
     32 H           9.4651   -0.3100    0.0000 H       1  UNL1        0.0624
     33 H           8.3082   -1.0000    0.0000 H       1  UNL1        0.0256
     34 H           8.9282   -1.6200    0.0000 H       1  UNL1        0.0256
     35 H           9.5482   -1.0000    0.0000 H       1  UNL1        0.0256
     36 H          10.3312    0.1900    0.0000 H       1  UNL1        0.2099
@<TRIPOS>BOND
     1     1     9    1
     2     1    12    1
     3     2     9    2
     4     3    13    1
     5     3    36    1
     6     4     5    1
     7     4     7    1
     8     4     9    1
     9     4    15    1
    10     5     6    1
    11     5    16    1
    12     5    17    1
    13     6     8    1
    14     6    18    1
    15     6    19    1
    16     7    10    1
    17     7    20    1
    18     7    21    1
    19     8    11    1
    20     8    22    1
    21     8    23    1
    22    10    24    1
    23    10    25    1
    24    10    26    1
    25    11    27    1
    26    11    28    1
    27    11    29    1
    28    12    13    1
    29    12    30    1
    30    12    31    1
    31    13    14    1
    32    13    32    1
    33    14    33    1
    34    14    34    1
    35    14    35    1
