@<TRIPOS>MOLECULE
IMPHY016283
 15 14 0 0 0
SMALL
GASTEIGER

@<TRIPOS>ATOM
      1 O           2.5369    0.4400    0.0000 O.3     1  UNL1       -0.4775
      2 O           3.4030   -1.0600    0.0000 O.2     1  UNL1       -0.2458
      3 C           6.0010    0.4400    0.0000 C.3     1  UNL1       -0.0371
      4 C           6.8671   -0.0600    0.0000 C.3     1  UNL1       -0.0618
      5 C           5.1350   -0.0600    0.0000 C.2     1  UNL1       -0.0775
      6 C           4.2690    0.4400    0.0000 C.2     1  UNL1        0.0184
      7 C           3.4030   -0.0600    0.0000 C.2     1  UNL1        0.3292
      8 H           6.3996    0.9149    0.0000 H       1  UNL1        0.0305
      9 H           5.6025    0.9149    0.0000 H       1  UNL1        0.0305
     10 H           6.5571   -0.5969    0.0000 H       1  UNL1        0.0233
     11 H           7.4040   -0.3700    0.0000 H       1  UNL1        0.0233
     12 H           7.1771    0.4769    0.0000 H       1  UNL1        0.0233
     13 H           5.1350   -0.6800    0.0000 H       1  UNL1        0.0574
     14 H           4.2690    1.0600    0.0000 H       1  UNL1        0.0686
     15 H           2.0000    0.1300    0.0000 H       1  UNL1        0.2954
@<TRIPOS>BOND
     1     1     7    1
     2     1    15    1
     3     2     7    2
     4     3     4    1
     5     3     5    1
     6     3     8    1
     7     3     9    1
     8     4    10    1
     9     4    11    1
    10     4    12    1
    11     5     6    2
    12     5    13    1
    13     6     7    1
    14     6    14    1
