@<TRIPOS>MOLECULE
IMPHY008126
 103 109 0 0 0
SMALL
GASTEIGER

@<TRIPOS>ATOM
      1 O          12.0963    1.6674    0.0000 O.3     1  UNL1       -0.3877
      2 O          12.1202   -1.4084    0.0000 O.3     1  UNL1       -0.3879
      3 O           8.6240   -0.3741    0.0000 O.3     1  UNL1       -0.3944
      4 O          10.3312   -3.5361    0.0000 O.3     1  UNL1       -0.3453
      5 O           8.4922    5.1811    0.0000 O.3     1  UNL1       -0.4571
      6 O           8.5991   -3.5361    0.0000 O.3     1  UNL1       -0.3405
      7 O           9.1273    6.8461    0.0000 O.2     1  UNL1       -0.2456
      8 O          10.3312   -5.5361    0.0000 O.3     1  UNL1       -0.3841
      9 O           8.5991   -6.5361    0.0000 O.3     1  UNL1       -0.3864
     10 O           6.8671   -5.5361    0.0000 O.3     1  UNL1       -0.3865
     11 O           6.0010   -4.0361    0.0000 O.3     1  UNL1       -0.3688
     12 O           3.4030   -3.5361    0.0000 O.3     1  UNL1       -0.3459
     13 O           6.0010   -2.0361    0.0000 O.3     1  UNL1       -0.3890
     14 O           2.5369   -2.0361    0.0000 O.3     1  UNL1       -0.3669
     15 C          11.2322    1.1641    0.0000 C.3     1  UNL1       -0.0080
     16 C          11.2284    2.1641    0.0000 C.3     1  UNL1        0.0751
     17 C          10.3681    0.6608    0.0000 C.3     1  UNL1       -0.0252
     18 C          10.3604    2.6608    0.0000 C.3     1  UNL1        0.0036
     19 C          10.3561   -0.3808    0.0000 C.3     1  UNL1        0.0259
     20 C          11.2562   -0.9051    0.0000 C.3     1  UNL1        0.0764
     21 C           9.5002    1.1574    0.0000 C.3     1  UNL1       -0.0486
     22 C           9.4963    2.1574    0.0000 C.3     1  UNL1       -0.0442
     23 C          10.5659    3.6334    0.0000 C.3     1  UNL1       -0.0081
     24 C          12.1442    0.6608    0.0000 C.3     1  UNL1       -0.0447
     25 C          11.9628    2.8340    0.0000 C.3     1  UNL1       -0.0226
     26 C          12.1562   -0.3808    0.0000 C.3     1  UNL1       -0.0230
     27 C          11.5542    3.7402    0.0000 C.3     1  UNL1       -0.0432
     28 C           9.4062   -0.9051    0.0000 C.3     1  UNL1       -0.0400
     29 C          11.2687   -1.9900    0.0000 C.3     1  UNL1        0.0031
     30 C           9.4925    3.1574    0.0000 C.3     1  UNL1       -0.0564
     31 C           9.4920    0.1225    0.0000 C.3     1  UNL1        0.0527
     32 C           9.3936   -1.9900    0.0000 C.3     1  UNL1       -0.0257
     33 C          10.3312   -2.5361    0.0000 C.3     1  UNL1        0.0644
     34 C           9.8952    4.3751    0.0000 C.2     1  UNL1       -0.0222
     35 C           8.9009    4.2684    0.0000 C.3     1  UNL1        0.1147
     36 C          10.1010    5.3537    0.0000 C.2     1  UNL1        0.0252
     37 C           9.4651   -4.0361    0.0000 C.3     1  UNL1        0.1882
     38 C           9.2339    5.8518    0.0000 C.2     1  UNL1        0.3323
     39 C           9.4651   -5.0361    0.0000 C.3     1  UNL1        0.1341
     40 C           8.5991   -5.5361    0.0000 C.3     1  UNL1        0.1141
     41 C           7.7331   -4.0361    0.0000 C.3     1  UNL1        0.1133
     42 C           7.7331   -5.0361    0.0000 C.3     1  UNL1        0.1119
     43 C           6.8671   -3.5361    0.0000 C.3     1  UNL1        0.0770
     44 C           5.1350   -3.5361    0.0000 C.3     1  UNL1        0.1106
     45 C           5.1350   -2.5361    0.0000 C.3     1  UNL1        0.0883
     46 C           4.2690   -4.0361    0.0000 C.3     1  UNL1        0.0874
     47 C           4.2690   -2.0361    0.0000 C.3     1  UNL1        0.0268
     48 C           3.4030   -2.5361    0.0000 C.3     1  UNL1        0.1590
     49 C           4.2690   -5.0361    0.0000 C.3     1  UNL1       -0.0361
     50 H          11.7655    1.4803    0.0000 H       1  UNL1        0.0331
     51 H          10.9039    0.3487    0.0000 H       1  UNL1        0.0311
     52 H           8.8892    1.2627    0.0000 H       1  UNL1        0.0268
     53 H           9.2904    0.5740    0.0000 H       1  UNL1        0.0268
     54 H           9.2820    2.7392    0.0000 H       1  UNL1        0.0272
     55 H           8.8862    2.0474    0.0000 H       1  UNL1        0.0272
     56 H          10.7866    4.2128    0.0000 H       1  UNL1        0.0353
     57 H          12.7562    0.5617    0.0000 H       1  UNL1        0.0270
     58 H          12.3465    1.2468    0.0000 H       1  UNL1        0.0270
     59 H          12.3302    2.3346    0.0000 H       1  UNL1        0.0293
     60 H          12.4981    3.1468    0.0000 H       1  UNL1        0.0293
     61 H          12.3720   -0.9620    0.0000 H       1  UNL1        0.0293
     62 H          12.7658   -0.2677    0.0000 H       1  UNL1        0.0293
     63 H          12.1431    3.9343    0.0000 H       1  UNL1        0.0272
     64 H          11.4231    4.3462    0.0000 H       1  UNL1        0.0272
     65 H           9.2039   -0.3190    0.0000 H       1  UNL1        0.0273
     66 H           8.7941   -1.0041    0.0000 H       1  UNL1        0.0273
     67 H          11.4845   -2.5712    0.0000 H       1  UNL1        0.0318
     68 H          11.8783   -1.8769    0.0000 H       1  UNL1        0.0318
     69 H           9.8004    3.6955    0.0000 H       1  UNL1        0.0236
     70 H           8.9544    3.4653    0.0000 H       1  UNL1        0.0236
     71 H           9.1846    2.6193    0.0000 H       1  UNL1        0.0236
     72 H           9.8924    0.5959    0.0000 H       1  UNL1        0.0564
     73 H           9.0953    0.5990    0.0000 H       1  UNL1        0.0564
     74 H           8.7840   -1.8769    0.0000 H       1  UNL1        0.0290
     75 H           9.1778   -2.5712    0.0000 H       1  UNL1        0.0290
     76 H          10.8687   -2.8451    0.0000 H       1  UNL1        0.0598
     77 H          12.6321    1.9795    0.0000 H       1  UNL1        0.2102
     78 H          12.6584   -1.1005    0.0000 H       1  UNL1        0.2102
     79 H           8.3116    4.0756    0.0000 H       1  UNL1        0.0746
     80 H           9.0311    3.6623    0.0000 H       1  UNL1        0.0746
     81 H           8.0883   -0.0621    0.0000 H       1  UNL1        0.2094
     82 H          10.6669    5.6070    0.0000 H       1  UNL1        0.0689
     83 H          10.0021   -4.3461    0.0000 H       1  UNL1        0.0937
     84 H           9.4651   -5.6561    0.0000 H       1  UNL1        0.0671
     85 H           8.0622   -5.8461    0.0000 H       1  UNL1        0.0648
     86 H           7.7331   -3.4161    0.0000 H       1  UNL1        0.0647
     87 H           7.1962   -4.7261    0.0000 H       1  UNL1        0.0647
     88 H          10.3312   -6.1561    0.0000 H       1  UNL1        0.2101
     89 H           7.2656   -3.0612    0.0000 H       1  UNL1        0.0587
     90 H           6.4685   -3.0612    0.0000 H       1  UNL1        0.0587
     91 H           8.0622   -6.8461    0.0000 H       1  UNL1        0.2100
     92 H           6.8671   -6.1561    0.0000 H       1  UNL1        0.2100
     93 H           5.6720   -3.2261    0.0000 H       1  UNL1        0.0648
     94 H           5.1350   -1.9161    0.0000 H       1  UNL1        0.0622
     95 H           3.7320   -4.3461    0.0000 H       1  UNL1        0.0621
     96 H           4.6675   -1.5612    0.0000 H       1  UNL1        0.0340
     97 H           3.8705   -1.5612    0.0000 H       1  UNL1        0.0340
     98 H           3.4030   -1.9161    0.0000 H       1  UNL1        0.0908
     99 H           3.6490   -5.0361    0.0000 H       1  UNL1        0.0255
    100 H           4.2690   -5.6561    0.0000 H       1  UNL1        0.0255
    101 H           4.8890   -5.0361    0.0000 H       1  UNL1        0.0255
    102 H           6.0010   -1.4161    0.0000 H       1  UNL1        0.2099
    103 H           2.0000   -2.3461    0.0000 H       1  UNL1        0.2125
@<TRIPOS>BOND
     1    16     1    1
     2     1    77    1
     3    20     2    1
     4     2    78    1
     5     3    31    1
     6     3    81    1
     7    33     4    1
     8    37     4    1
     9     5    35    1
    10     5    38    1
    11     6    37    1
    12     6    41    1
    13     7    38    2
    14     8    39    1
    15     8    88    1
    16     9    40    1
    17     9    91    1
    18    42    10    1
    19    10    92    1
    20    11    43    1
    21    44    11    1
    22    12    46    1
    23    12    48    1
    24    13    45    1
    25    13   102    1
    26    48    14    1
    27    14   103    1
    28    15    16    1
    29    15    17    1
    30    15    24    1
    31    15    50    1
    32    16    18    1
    33    16    25    1
    34    17    19    1
    35    17    21    1
    36    17    51    1
    37    18    22    1
    38    18    23    1
    39    18    30    1
    40    19    20    1
    41    19    28    1
    42    19    31    1
    43    20    26    1
    44    20    29    1
    45    21    22    1
    46    21    52    1
    47    21    53    1
    48    22    54    1
    49    22    55    1
    50    23    27    1
    51    23    34    1
    52    23    56    1
    53    24    26    1
    54    24    57    1
    55    24    58    1
    56    25    27    1
    57    25    59    1
    58    25    60    1
    59    26    61    1
    60    26    62    1
    61    27    63    1
    62    27    64    1
    63    28    32    1
    64    28    65    1
    65    28    66    1
    66    29    33    1
    67    29    67    1
    68    29    68    1
    69    30    69    1
    70    30    70    1
    71    30    71    1
    72    31    72    1
    73    31    73    1
    74    32    33    1
    75    32    74    1
    76    32    75    1
    77    33    76    1
    78    34    35    1
    79    34    36    2
    80    35    79    1
    81    35    80    1
    82    36    38    1
    83    36    82    1
    84    37    39    1
    85    37    83    1
    86    39    40    1
    87    39    84    1
    88    40    42    1
    89    40    85    1
    90    41    42    1
    91    41    43    1
    92    41    86    1
    93    42    87    1
    94    43    89    1
    95    43    90    1
    96    44    45    1
    97    44    46    1
    98    44    93    1
    99    45    47    1
   100    45    94    1
   101    46    49    1
   102    46    95    1
   103    47    48    1
   104    47    96    1
   105    47    97    1
   106    48    98    1
   107    49    99    1
   108    49   100    1
   109    49   101    1
