@<TRIPOS>MOLECULE
IMPHY016465
 31 30 0 0 0
SMALL
GASTEIGER

@<TRIPOS>ATOM
      1 C           8.9282    0.7500    0.0000 C.3     1  UNL1       -0.0525
      2 C           8.0622    0.2500    0.0000 C.3     1  UNL1       -0.0422
      3 C           9.7942    0.2500    0.0000 C.3     1  UNL1       -0.0559
      4 C           7.1962    0.7500    0.0000 C.3     1  UNL1        0.0091
      5 C           3.7320   -0.2500    0.0000 C.3     1  UNL1       -0.0424
      6 C           2.8660   -0.7500    0.0000 C.3     1  UNL1       -0.0551
      7 C           4.5981   -0.7500    0.0000 C.3     1  UNL1        0.0091
      8 C          10.6603    0.7500    0.0000 C.3     1  UNL1       -0.0653
      9 C           2.0000   -0.2500    0.0000 C.3     1  UNL1       -0.0652
     10 C           6.3301    0.2500    0.0000 C.1     1  UNL1       -0.1022
     11 C           5.4641   -0.2500    0.0000 C.1     1  UNL1       -0.1022
     12 H           9.3267    1.2250    0.0000 H       1  UNL1        0.0265
     13 H           8.5297    1.2250    0.0000 H       1  UNL1        0.0265
     14 H           7.6636   -0.2249    0.0000 H       1  UNL1        0.0274
     15 H           8.4607   -0.2249    0.0000 H       1  UNL1        0.0274
     16 H           9.3957   -0.2249    0.0000 H       1  UNL1        0.0263
     17 H          10.1928   -0.2249    0.0000 H       1  UNL1        0.0263
     18 H           7.5947    1.2250    0.0000 H       1  UNL1        0.0397
     19 H           6.7976    1.2250    0.0000 H       1  UNL1        0.0397
     20 H           4.1306    0.2249    0.0000 H       1  UNL1        0.0274
     21 H           3.3335    0.2249    0.0000 H       1  UNL1        0.0274
     22 H           2.4675   -1.2250    0.0000 H       1  UNL1        0.0263
     23 H           3.2646   -1.2250    0.0000 H       1  UNL1        0.0263
     24 H           4.1996   -1.2250    0.0000 H       1  UNL1        0.0397
     25 H           4.9966   -1.2250    0.0000 H       1  UNL1        0.0397
     26 H          10.9703    0.2131    0.0000 H       1  UNL1        0.0230
     27 H          11.1972    1.0600    0.0000 H       1  UNL1        0.0230
     28 H          10.3503    1.2869    0.0000 H       1  UNL1        0.0230
     29 H           2.3100    0.2869    0.0000 H       1  UNL1        0.0230
     30 H           1.4631    0.0600    0.0000 H       1  UNL1        0.0230
     31 H           1.6900   -0.7869    0.0000 H       1  UNL1        0.0230
@<TRIPOS>BOND
     1     1     2    1
     2     1     3    1
     3     1    12    1
     4     1    13    1
     5     2     4    1
     6     2    14    1
     7     2    15    1
     8     3     8    1
     9     3    16    1
    10     3    17    1
    11     4    10    1
    12     4    18    1
    13     4    19    1
    14     5     6    1
    15     5     7    1
    16     5    20    1
    17     5    21    1
    18     6     9    1
    19     6    22    1
    20     6    23    1
    21     7    11    1
    22     7    24    1
    23     7    25    1
    24     8    26    1
    25     8    27    1
    26     8    28    1
    27     9    29    1
    28     9    30    1
    29     9    31    1
    30    10    11    3
