@<TRIPOS>MOLECULE
IMPHY014535
 144 151 0 0 0
SMALL
GASTEIGER

@<TRIPOS>ATOM
      1 O          15.6871    6.2552    0.0000 O.3     1  UNL1       -0.3876
      2 O          18.2755    3.7452    0.0000 O.3     1  UNL1       -0.3886
      3 O          16.5396    2.7519    0.0000 O.3     1  UNL1       -0.3889
      4 O          19.8032    6.4445    0.0000 O.3     1  UNL1       -0.3918
      5 O          11.1972    2.6248    0.0000 O.3     1  UNL1       -0.3706
      6 O          11.1972   -0.3752    0.0000 O.3     1  UNL1       -0.3891
      7 O           9.4651    0.6248    0.0000 O.3     1  UNL1       -0.3429
      8 O           8.5991   -0.8752    0.0000 O.3     1  UNL1       -0.3456
      9 O          11.1972   -2.3752    0.0000 O.3     1  UNL1       -0.3770
     10 O           9.4651   -3.3752    0.0000 O.3     1  UNL1       -0.3403
     11 O           7.7331   -3.3752    0.0000 O.3     1  UNL1       -0.3431
     12 O           9.4651   -5.3752    0.0000 O.3     1  UNL1       -0.3841
     13 O           6.0010   -5.3752    0.0000 O.3     1  UNL1       -0.3402
     14 O           7.7331   -6.3752    0.0000 O.3     1  UNL1       -0.3744
     15 O           5.1350   -3.8752    0.0000 O.3     1  UNL1       -0.3405
     16 O           4.2690   -6.3752    0.0000 O.3     1  UNL1       -0.3841
     17 O           2.5369   -5.3752    0.0000 O.3     1  UNL1       -0.3864
     18 O           2.5369   -3.3752    0.0000 O.3     1  UNL1       -0.3865
     19 O           5.1350   -1.8752    0.0000 O.3     1  UNL1       -0.3924
     20 C          17.4152    5.2486    0.0000 C.3     1  UNL1        0.0304
     21 C          16.5511    5.7519    0.0000 C.3     1  UNL1        0.0777
     22 C          15.6832    5.2552    0.0000 C.3     1  UNL1       -0.0021
     23 C          15.6793    4.2552    0.0000 C.3     1  UNL1        0.0023
     24 C          18.1548    5.9128    0.0000 C.3     1  UNL1       -0.0047
     25 C          17.4114    4.2486    0.0000 C.3     1  UNL1        0.0896
     26 C          14.7833    3.7240    0.0000 C.3     1  UNL1       -0.0055
     27 C          16.5434    3.7519    0.0000 C.3     1  UNL1        0.0856
     28 C          16.7641    6.7229    0.0000 C.3     1  UNL1       -0.0228
     29 C          17.7532    6.8221    0.0000 C.3     1  UNL1       -0.0446
     30 C          14.7913    5.7933    0.0000 C.3     1  UNL1       -0.0287
     31 C          18.2793    4.7452    0.0000 C.3     1  UNL1       -0.0541
     32 C          13.8793    4.2414    0.0000 C.2     1  UNL1       -0.0668
     33 C          14.8043    2.6392    0.0000 C.3     1  UNL1       -0.0432
     34 C          19.1325    5.7028    0.0000 C.3     1  UNL1        0.0559
     35 C          13.8833    5.2830    0.0000 C.2     1  UNL1       -0.0839
     36 C          15.6513    3.2274    0.0000 C.3     1  UNL1       -0.0555
     37 C          12.9334    3.7098    0.0000 C.3     1  UNL1       -0.0260
     38 C          13.8710    2.0859    0.0000 C.3     1  UNL1       -0.0468
     39 C          12.9292    2.6248    0.0000 C.3     1  UNL1       -0.0109
     40 C          12.0632    2.1248    0.0000 C.3     1  UNL1        0.0647
     41 C          19.4395    4.7511    0.0000 C.3     1  UNL1       -0.0387
     42 C          12.0632    1.1248    0.0000 C.3     1  UNL1        0.0023
     43 C          11.1972    0.6248    0.0000 C.3     1  UNL1        0.0862
     44 C          10.3312    2.1248    0.0000 C.3     1  UNL1        0.0849
     45 C          10.3312    1.1248    0.0000 C.3     1  UNL1        0.1133
     46 C           9.4651    2.6248    0.0000 C.3     1  UNL1       -0.0361
     47 C           9.4651   -0.3752    0.0000 C.3     1  UNL1        0.1626
     48 C          10.3312   -0.8752    0.0000 C.3     1  UNL1        0.0272
     49 C          10.3312   -1.8752    0.0000 C.3     1  UNL1        0.0915
     50 C           8.5991   -1.8752    0.0000 C.3     1  UNL1        0.0875
     51 C           9.4651   -2.3752    0.0000 C.3     1  UNL1        0.1138
     52 C           7.7331   -2.3752    0.0000 C.3     1  UNL1       -0.0361
     53 C           8.5991   -3.8752    0.0000 C.3     1  UNL1        0.1883
     54 C          12.0632   -1.8752    0.0000 C.3     1  UNL1        0.0369
     55 C           8.5991   -4.8752    0.0000 C.3     1  UNL1        0.1344
     56 C           7.7331   -5.3752    0.0000 C.3     1  UNL1        0.1174
     57 C           6.8671   -4.8752    0.0000 C.3     1  UNL1        0.1162
     58 C           6.8671   -3.8752    0.0000 C.3     1  UNL1        0.0877
     59 C           6.0010   -3.3752    0.0000 C.3     1  UNL1       -0.0360
     60 C           5.1350   -4.8752    0.0000 C.3     1  UNL1        0.1884
     61 C           4.2690   -5.3752    0.0000 C.3     1  UNL1        0.1341
     62 C           3.4030   -4.8752    0.0000 C.3     1  UNL1        0.1141
     63 C           3.4030   -3.8752    0.0000 C.3     1  UNL1        0.1119
     64 C           4.2690   -3.3752    0.0000 C.3     1  UNL1        0.1130
     65 C           8.5991   -6.8752    0.0000 C.3     1  UNL1        0.0370
     66 C           4.2690   -2.3752    0.0000 C.3     1  UNL1        0.0730
     67 H          16.4177    4.8274    0.0000 H       1  UNL1        0.0335
     68 H          16.4171    4.6774    0.0000 H       1  UNL1        0.0339
     69 H          18.6914    6.5720    0.0000 H       1  UNL1        0.0333
     70 H          17.4090    3.6286    0.0000 H       1  UNL1        0.0626
     71 H          16.0053    3.4440    0.0000 H       1  UNL1        0.0622
     72 H          16.7674    7.3429    0.0000 H       1  UNL1        0.0293
     73 H          16.1479    6.7913    0.0000 H       1  UNL1        0.0293
     74 H          18.3435    7.0116    0.0000 H       1  UNL1        0.0270
     75 H          17.6268    7.4291    0.0000 H       1  UNL1        0.0270
     76 H          15.1977    6.2616    0.0000 H       1  UNL1        0.0311
     77 H          14.3995    6.2739    0.0000 H       1  UNL1        0.0311
     78 H          17.9673    4.2095    0.0000 H       1  UNL1        0.0237
     79 H          18.8151    4.4332    0.0000 H       1  UNL1        0.0237
     80 H          18.5914    5.2810    0.0000 H       1  UNL1        0.0237
     81 H          15.0245    2.0597    0.0000 H       1  UNL1        0.0274
     82 H          15.4130    2.7571    0.0000 H       1  UNL1        0.0274
     83 H          18.9422    6.2929    0.0000 H       1  UNL1        0.0593
     84 H          13.3488    5.5971    0.0000 H       1  UNL1        0.0572
     85 H          15.6894    6.8752    0.0000 H       1  UNL1        0.2102
     86 H          15.3434    2.6892    0.0000 H       1  UNL1        0.0238
     87 H          16.1894    2.9194    0.0000 H       1  UNL1        0.0238
     88 H          15.9592    3.7655    0.0000 H       1  UNL1        0.0238
     89 H          12.7266    4.2943    0.0000 H       1  UNL1        0.0314
     90 H          12.3222    3.6060    0.0000 H       1  UNL1        0.0314
     91 H          13.4755    1.6084    0.0000 H       1  UNL1        0.0269
     92 H          14.2737    1.6146    0.0000 H       1  UNL1        0.0269
     93 H          12.9309    1.7748    0.0000 H       1  UNL1        0.0329
     94 H          18.2731    3.1252    0.0000 H       1  UNL1        0.2099
     95 H          17.0753    2.4398    0.0000 H       1  UNL1        0.2099
     96 H          12.0632    2.9748    0.0000 H       1  UNL1        0.0600
     97 H          18.8495    4.5608    0.0000 H       1  UNL1        0.0255
     98 H          19.6299    4.1610    0.0000 H       1  UNL1        0.0255
     99 H          20.0296    4.9414    0.0000 H       1  UNL1        0.0255
    100 H          20.4094    6.3143    0.0000 H       1  UNL1        0.2098
    101 H          12.2753    0.5422    0.0000 H       1  UNL1        0.0316
    102 H          12.6738    1.2324    0.0000 H       1  UNL1        0.0316
    103 H          11.7341    0.3148    0.0000 H       1  UNL1        0.0621
    104 H          10.3312    2.7448    0.0000 H       1  UNL1        0.0620
    105 H           9.7942    1.4348    0.0000 H       1  UNL1        0.0649
    106 H           9.7751    3.1617    0.0000 H       1  UNL1        0.0255
    107 H           8.9282    2.9348    0.0000 H       1  UNL1        0.0255
    108 H           9.1551    2.0878    0.0000 H       1  UNL1        0.0255
    109 H          11.7341   -0.6852    0.0000 H       1  UNL1        0.2099
    110 H          10.0021   -0.0652    0.0000 H       1  UNL1        0.0910
    111 H          10.9417   -0.9829    0.0000 H       1  UNL1        0.0340
    112 H          10.5432   -0.2926    0.0000 H       1  UNL1        0.0340
    113 H          10.8681   -1.5652    0.0000 H       1  UNL1        0.0624
    114 H           8.0622   -1.5652    0.0000 H       1  UNL1        0.0621
    115 H          10.0021   -2.6852    0.0000 H       1  UNL1        0.0649
    116 H           7.4231   -1.8383    0.0000 H       1  UNL1        0.0255
    117 H           7.1962   -2.6852    0.0000 H       1  UNL1        0.0255
    118 H           8.0431   -2.9122    0.0000 H       1  UNL1        0.0255
    119 H           8.5991   -3.2552    0.0000 H       1  UNL1        0.0938
    120 H          12.3732   -2.4122    0.0000 H       1  UNL1        0.0524
    121 H          12.6002   -1.5652    0.0000 H       1  UNL1        0.0524
    122 H          11.7532   -1.3383    0.0000 H       1  UNL1        0.0524
    123 H           8.5991   -5.4952    0.0000 H       1  UNL1        0.0671
    124 H           7.1962   -5.6852    0.0000 H       1  UNL1        0.0650
    125 H           6.3301   -4.5652    0.0000 H       1  UNL1        0.0650
    126 H           6.8671   -3.2552    0.0000 H       1  UNL1        0.0621
    127 H          10.0021   -5.0652    0.0000 H       1  UNL1        0.2101
    128 H           6.3110   -2.8383    0.0000 H       1  UNL1        0.0255
    129 H           5.4641   -3.0652    0.0000 H       1  UNL1        0.0255
    130 H           5.6910   -3.9122    0.0000 H       1  UNL1        0.0255
    131 H           5.1350   -5.4952    0.0000 H       1  UNL1        0.0938
    132 H           3.7320   -5.6852    0.0000 H       1  UNL1        0.0671
    133 H           2.8660   -4.5652    0.0000 H       1  UNL1        0.0648
    134 H           3.4030   -3.2552    0.0000 H       1  UNL1        0.0647
    135 H           4.8059   -3.0652    0.0000 H       1  UNL1        0.0647
    136 H           8.2891   -7.4122    0.0000 H       1  UNL1        0.0524
    137 H           9.1360   -7.1852    0.0000 H       1  UNL1        0.0524
    138 H           8.9091   -6.3383    0.0000 H       1  UNL1        0.0524
    139 H           4.0569   -1.7926    0.0000 H       1  UNL1        0.0584
    140 H           3.6584   -2.4829    0.0000 H       1  UNL1        0.0584
    141 H           3.7320   -6.6852    0.0000 H       1  UNL1        0.2101
    142 H           2.0000   -5.0652    0.0000 H       1  UNL1        0.2100
    143 H           2.5369   -2.7552    0.0000 H       1  UNL1        0.2100
    144 H           5.1350   -1.2552    0.0000 H       1  UNL1        0.2095
@<TRIPOS>BOND
     1    21     1    1
     2     1    85    1
     3     2    25    1
     4     2    94    1
     5    27     3    1
     6     3    95    1
     7    34     4    1
     8     4   100    1
     9     5    40    1
    10     5    44    1
    11    43     6    1
    12     6   109    1
    13    45     7    1
    14    47     7    1
    15     8    47    1
    16     8    50    1
    17    49     9    1
    18     9    54    1
    19    51    10    1
    20    53    10    1
    21    11    53    1
    22    11    58    1
    23    55    12    1
    24    12   127    1
    25    57    13    1
    26    60    13    1
    27    56    14    1
    28    14    65    1
    29    15    60    1
    30    15    64    1
    31    61    16    1
    32    16   141    1
    33    62    17    1
    34    17   142    1
    35    63    18    1
    36    18   143    1
    37    19    66    1
    38    19   144    1
    39    20    21    1
    40    20    24    1
    41    20    25    1
    42    20    31    1
    43    21    22    1
    44    21    28    1
    45    22    23    1
    46    22    30    1
    47    22    67    1
    48    23    26    1
    49    23    27    1
    50    23    68    1
    51    24    29    1
    52    24    34    1
    53    24    69    1
    54    25    27    1
    55    25    70    1
    56    26    32    1
    57    26    33    1
    58    26    36    1
    59    27    71    1
    60    28    29    1
    61    28    72    1
    62    28    73    1
    63    29    74    1
    64    29    75    1
    65    30    35    1
    66    30    76    1
    67    30    77    1
    68    31    78    1
    69    31    79    1
    70    31    80    1
    71    32    35    2
    72    32    37    1
    73    33    38    1
    74    33    81    1
    75    33    82    1
    76    34    41    1
    77    34    83    1
    78    35    84    1
    79    36    86    1
    80    36    87    1
    81    36    88    1
    82    37    39    1
    83    37    89    1
    84    37    90    1
    85    38    39    1
    86    38    91    1
    87    38    92    1
    88    39    40    1
    89    39    93    1
    90    40    42    1
    91    40    96    1
    92    41    97    1
    93    41    98    1
    94    41    99    1
    95    42    43    1
    96    42   101    1
    97    42   102    1
    98    43    45    1
    99    43   103    1
   100    44    45    1
   101    44    46    1
   102    44   104    1
   103    45   105    1
   104    46   106    1
   105    46   107    1
   106    46   108    1
   107    47    48    1
   108    47   110    1
   109    48    49    1
   110    48   111    1
   111    48   112    1
   112    49    51    1
   113    49   113    1
   114    50    51    1
   115    50    52    1
   116    50   114    1
   117    51   115    1
   118    52   116    1
   119    52   117    1
   120    52   118    1
   121    53    55    1
   122    53   119    1
   123    54   120    1
   124    54   121    1
   125    54   122    1
   126    55    56    1
   127    55   123    1
   128    56    57    1
   129    56   124    1
   130    57    58    1
   131    57   125    1
   132    58    59    1
   133    58   126    1
   134    59   128    1
   135    59   129    1
   136    59   130    1
   137    60    61    1
   138    60   131    1
   139    61    62    1
   140    61   132    1
   141    62    63    1
   142    62   133    1
   143    63    64    1
   144    63   134    1
   145    64    66    1
   146    64   135    1
   147    65   136    1
   148    65   137    1
   149    65   138    1
   150    66   139    1
   151    66   140    1
