@<TRIPOS>MOLECULE
IMPHY003851
 73 77 0 0 0
SMALL
GASTEIGER

@<TRIPOS>ATOM
      1 O           5.5994   -2.8189    0.0000 O.3     1  UNL1       -0.3876
      2 O           8.2790   -2.3019    0.0000 O.3     1  UNL1       -0.3914
      3 N           9.0503    2.3686    0.0000 N.3     1  UNL1       -0.3018
      4 N           2.8641   -2.3228    0.0000 N.3     1  UNL1       -0.3051
      5 C           8.2572    0.7295    0.0000 C.3     1  UNL1       -0.0091
      6 C           8.2572   -0.2705    0.0000 C.3     1  UNL1       -0.0285
      7 C           7.3912   -0.7705    0.0000 C.3     1  UNL1       -0.0081
      8 C           6.5251   -0.2705    0.0000 C.3     1  UNL1       -0.0276
      9 C           9.2034    1.0343    0.0000 C.3     1  UNL1       -0.0186
     10 C           5.6151   -0.7773    0.0000 C.3     1  UNL1        0.0003
     11 C           7.3912    1.2295    0.0000 C.3     1  UNL1       -0.0454
     12 C           5.6071   -1.8189    0.0000 C.3     1  UNL1        0.0780
     13 C           6.5251    0.7295    0.0000 C.3     1  UNL1       -0.0487
     14 C           9.2034   -0.5752    0.0000 C.3     1  UNL1       -0.0490
     15 C           8.1590    1.7128    0.0000 C.3     1  UNL1        0.0051
     16 C           7.4072   -1.8120    0.0000 C.3     1  UNL1        0.0612
     17 C           9.7870    0.2295    0.0000 C.3     1  UNL1       -0.0480
     18 C           9.6975    1.8901    0.0000 C.3     1  UNL1        0.0107
     19 C           6.5092   -2.3397    0.0000 C.3     1  UNL1        0.0032
     20 C           4.6883   -0.2132    0.0000 C.3     1  UNL1       -0.0433
     21 C           4.6717   -2.3686    0.0000 C.3     1  UNL1        0.0012
     22 C           5.6228    0.2227    0.0000 C.3     1  UNL1       -0.0567
     23 C           3.7320   -1.8261    0.0000 C.3     1  UNL1        0.0150
     24 C           3.7404   -0.7412    0.0000 C.3     1  UNL1       -0.0364
     25 C          10.6488    2.1983    0.0000 C.3     1  UNL1       -0.0492
     26 C           4.6755   -3.3686    0.0000 C.3     1  UNL1       -0.0584
     27 C           9.0529    3.3686    0.0000 C.3     1  UNL1       -0.0125
     28 C           2.0000   -1.8194    0.0000 C.3     1  UNL1       -0.0128
     29 C           2.8602   -3.3228    0.0000 C.3     1  UNL1       -0.0128
     30 H           8.3471   -1.1157    0.0000 H       1  UNL1        0.0310
     31 H           8.1305   -1.1898    0.0000 H       1  UNL1        0.0331
     32 H           7.2612    0.1545    0.0000 H       1  UNL1        0.0310
     33 H          10.0522    1.0784    0.0000 H       1  UNL1        0.0322
     34 H           7.7897    1.7045    0.0000 H       1  UNL1        0.0271
     35 H           6.9926    1.7045    0.0000 H       1  UNL1        0.0271
     36 H           6.3131    1.3122    0.0000 H       1  UNL1        0.0268
     37 H           5.9145    0.6219    0.0000 H       1  UNL1        0.0268
     38 H           8.9524   -1.1421    0.0000 H       1  UNL1        0.0268
     39 H           9.7408   -0.8844    0.0000 H       1  UNL1        0.0268
     40 H           7.8859    2.2695    0.0000 H       1  UNL1        0.0432
     41 H           7.5628    1.5428    0.0000 H       1  UNL1        0.0432
     42 H           7.9399   -1.4948    0.0000 H       1  UNL1        0.0597
     43 H          10.2479   -0.1852    0.0000 H       1  UNL1        0.0269
     44 H          10.2479    0.6443    0.0000 H       1  UNL1        0.0269
     45 H           9.7973    2.5020    0.0000 H       1  UNL1        0.0463
     46 H           6.1119   -2.8157    0.0000 H       1  UNL1        0.0318
     47 H           6.9101   -2.8126    0.0000 H       1  UNL1        0.0318
     48 H           5.0965    0.2534    0.0000 H       1  UNL1        0.0272
     49 H           4.2984    0.2688    0.0000 H       1  UNL1        0.0272
     50 H           4.1353   -2.6797    0.0000 H       1  UNL1        0.0341
     51 H           6.2428    0.2179    0.0000 H       1  UNL1        0.0236
     52 H           5.6276    0.8426    0.0000 H       1  UNL1        0.0236
     53 H           5.0028    0.2274    0.0000 H       1  UNL1        0.0236
     54 H           3.7308   -2.4461    0.0000 H       1  UNL1        0.0466
     55 H           3.5358   -0.1559    0.0000 H       1  UNL1        0.0281
     56 H           3.1288   -0.8425    0.0000 H       1  UNL1        0.0281
     57 H          10.8399    1.6084    0.0000 H       1  UNL1        0.0245
     58 H          11.2386    2.3894    0.0000 H       1  UNL1        0.0245
     59 H          10.4577    2.7881    0.0000 H       1  UNL1        0.0245
     60 H           6.1339   -3.1330    0.0000 H       1  UNL1        0.2102
     61 H           4.0555   -3.3710    0.0000 H       1  UNL1        0.0234
     62 H           4.6779   -3.9886    0.0000 H       1  UNL1        0.0234
     63 H           5.2955   -3.3662    0.0000 H       1  UNL1        0.0234
     64 H           8.2861   -2.9219    0.0000 H       1  UNL1        0.2098
     65 H           9.6729    3.3670    0.0000 H       1  UNL1        0.0391
     66 H           9.0545    3.9886    0.0000 H       1  UNL1        0.0391
     67 H           8.4329    3.3702    0.0000 H       1  UNL1        0.0391
     68 H           2.2402   -3.3204    0.0000 H       1  UNL1        0.0391
     69 H           2.8578   -3.9428    0.0000 H       1  UNL1        0.0391
     70 H           3.4802   -3.3252    0.0000 H       1  UNL1        0.0391
     71 H           2.3121   -1.2837    0.0000 H       1  UNL1        0.0391
     72 H           1.4643   -1.5074    0.0000 H       1  UNL1        0.0391
     73 H           1.6879   -2.3552    0.0000 H       1  UNL1        0.0391
@<TRIPOS>BOND
     1    12     1    1
     2     1    60    1
     3    16     2    1
     4     2    64    1
     5     3    15    1
     6     3    18    1
     7     3    27    1
     8    23     4    1
     9     4    28    1
    10     4    29    1
    11     5     6    1
    12     5     9    1
    13     5    11    1
    14     5    15    1
    15     6     7    1
    16     6    14    1
    17     6    30    1
    18     7     8    1
    19     7    16    1
    20     7    31    1
    21     8    10    1
    22     8    13    1
    23     8    32    1
    24     9    17    1
    25     9    18    1
    26     9    33    1
    27    10    12    1
    28    10    20    1
    29    10    22    1
    30    11    13    1
    31    11    34    1
    32    11    35    1
    33    12    19    1
    34    12    21    1
    35    13    36    1
    36    13    37    1
    37    14    17    1
    38    14    38    1
    39    14    39    1
    40    15    40    1
    41    15    41    1
    42    16    19    1
    43    16    42    1
    44    17    43    1
    45    17    44    1
    46    18    25    1
    47    18    45    1
    48    19    46    1
    49    19    47    1
    50    20    24    1
    51    20    48    1
    52    20    49    1
    53    21    23    1
    54    21    26    1
    55    21    50    1
    56    22    51    1
    57    22    52    1
    58    22    53    1
    59    23    24    1
    60    23    54    1
    61    24    55    1
    62    24    56    1
    63    25    57    1
    64    25    58    1
    65    25    59    1
    66    26    61    1
    67    26    62    1
    68    26    63    1
    69    27    65    1
    70    27    66    1
    71    27    67    1
    72    28    71    1
    73    28    72    1
    74    28    73    1
    75    29    68    1
    76    29    69    1
    77    29    70    1
