@<TRIPOS>MOLECULE
IMPHY002724
 81 86 0 0 0
SMALL
GASTEIGER

@<TRIPOS>ATOM
      1 O           6.7605    0.1884    0.0000 O.3     1  UNL1       -0.4603
      2 O           5.9379   -1.4107    0.0000 O.2     1  UNL1       -0.2502
      3 O           2.0000    2.5364    0.0000 O.3     1  UNL1       -0.3915
      4 C           6.4739   -1.1080    0.0000 C.3     1  UNL1        0.0800
      5 C           7.3399   -0.6080    0.0000 C.3     1  UNL1        0.0243
      6 C           5.6079   -0.6080    0.0000 C.3     1  UNL1       -0.0188
      7 C           5.6079    0.3920    0.0000 C.3     1  UNL1       -0.0215
      8 C           8.2499   -1.1148    0.0000 C.3     1  UNL1       -0.0253
      9 C           7.3399    0.3920    0.0000 C.3     1  UNL1        0.1102
     10 C           4.7140    0.9267    0.0000 C.3     1  UNL1       -0.0294
     11 C           6.4739    0.8920    0.0000 C.3     1  UNL1       -0.0091
     12 C           8.2580   -2.1564    0.0000 C.3     1  UNL1       -0.0285
     13 C           6.4578   -2.1495    0.0000 C.3     1  UNL1       -0.0358
     14 C           3.8079    0.4128    0.0000 C.3     1  UNL1       -0.0238
     15 C           4.7140   -1.1426    0.0000 C.3     1  UNL1       -0.0482
     16 C           7.3559   -2.6772    0.0000 C.3     1  UNL1       -0.0463
     17 C           6.3605   -0.5044    0.0000 C.2     1  UNL1        0.3145
     18 C           3.8079   -0.6288    0.0000 C.3     1  UNL1       -0.0467
     19 C           9.1768   -0.5507    0.0000 C.3     1  UNL1       -0.0439
     20 C           8.2060   -0.1080    0.0000 C.3     1  UNL1       -0.0549
     21 C           5.6079    1.3920    0.0000 C.3     1  UNL1       -0.0589
     22 C           9.1934   -2.7062    0.0000 C.3     1  UNL1       -0.0469
     23 C           4.7390    2.0114    0.0000 C.3     1  UNL1       -0.0469
     24 C           2.8641    0.9481    0.0000 C.3     1  UNL1       -0.0121
     25 C          10.1247   -1.0787    0.0000 C.3     1  UNL1       -0.0346
     26 C          10.1330   -2.1636    0.0000 C.3     1  UNL1       -0.0474
     27 C           8.2657   -3.1564    0.0000 C.3     1  UNL1       -0.0593
     28 C           2.9380   -0.0805    0.0000 C.3     1  UNL1       -0.0590
     29 C           2.8641    2.0331    0.0000 C.3     1  UNL1        0.0583
     30 C           3.8079    2.5683    0.0000 C.3     1  UNL1       -0.0263
     31 C           2.0000    0.4447    0.0000 C.3     1  UNL1       -0.0596
     32 C          11.1246   -1.0671    0.0000 C.3     1  UNL1       -0.0598
     33 C          10.6146   -0.2069    0.0000 C.3     1  UNL1       -0.0598
     34 H           5.1831   -1.3442    0.0000 H       1  UNL1        0.0317
     35 H           8.9925   -1.5284    0.0000 H       1  UNL1        0.0313
     36 H           7.7649    1.1281    0.0000 H       1  UNL1        0.0740
     37 H           5.4581    1.3374    0.0000 H       1  UNL1        0.0311
     38 H           6.8724    1.3670    0.0000 H       1  UNL1        0.0306
     39 H           6.0754    1.3670    0.0000 H       1  UNL1        0.0306
     40 H           5.8487   -2.0340    0.0000 H       1  UNL1        0.0276
     41 H           6.2398   -2.7299    0.0000 H       1  UNL1        0.0276
     42 H           4.3203   -1.6217    0.0000 H       1  UNL1        0.0269
     43 H           5.1185   -1.6124    0.0000 H       1  UNL1        0.0269
     44 H           6.9549   -3.1501    0.0000 H       1  UNL1        0.0271
     45 H           7.7532   -3.1532    0.0000 H       1  UNL1        0.0271
     46 H           3.1970   -0.5227    0.0000 H       1  UNL1        0.0271
     47 H           3.5988   -1.2125    0.0000 H       1  UNL1        0.0271
     48 H           9.5667   -0.0687    0.0000 H       1  UNL1        0.0273
     49 H           8.7686   -0.0841    0.0000 H       1  UNL1        0.0273
     50 H           8.5160   -0.6449    0.0000 H       1  UNL1        0.0237
     51 H           8.7429    0.2020    0.0000 H       1  UNL1        0.0237
     52 H           7.8960    0.4290    0.0000 H       1  UNL1        0.0237
     53 H           6.2279    1.3920    0.0000 H       1  UNL1        0.0235
     54 H           5.6079    2.0120    0.0000 H       1  UNL1        0.0235
     55 H           4.9879    1.3920    0.0000 H       1  UNL1        0.0235
     56 H           8.7924   -3.1790    0.0000 H       1  UNL1        0.0271
     57 H           9.5907   -3.1821    0.0000 H       1  UNL1        0.0271
     58 H           5.3473    1.8912    0.0000 H       1  UNL1        0.0269
     59 H           4.9615    2.5901    0.0000 H       1  UNL1        0.0269
     60 H           2.3266    1.2570    0.0000 H       1  UNL1        0.0328
     61 H          10.3466   -2.7457    0.0000 H       1  UNL1        0.0271
     62 H          10.7430   -2.0529    0.0000 H       1  UNL1        0.0271
     63 H           7.6457   -3.1612    0.0000 H       1  UNL1        0.0235
     64 H           8.2705   -3.7764    0.0000 H       1  UNL1        0.0235
     65 H           8.8857   -3.1516    0.0000 H       1  UNL1        0.0235
     66 H           2.6322    0.4588    0.0000 H       1  UNL1        0.0235
     67 H           2.3987   -0.3863    0.0000 H       1  UNL1        0.0235
     68 H           3.2439   -0.6198    0.0000 H       1  UNL1        0.0235
     69 H           2.3266    1.7241    0.0000 H       1  UNL1        0.0596
     70 H           4.2125    3.0381    0.0000 H       1  UNL1        0.0290
     71 H           3.4142    3.0473    0.0000 H       1  UNL1        0.0290
     72 H           1.6879    0.9805    0.0000 H       1  UNL1        0.0233
     73 H           1.4643    0.1327    0.0000 H       1  UNL1        0.0233
     74 H           2.3121   -0.0910    0.0000 H       1  UNL1        0.0233
     75 H          11.1318   -1.6871    0.0000 H       1  UNL1        0.0235
     76 H          11.7446   -1.0600    0.0000 H       1  UNL1        0.0235
     77 H          11.1174   -0.4472    0.0000 H       1  UNL1        0.0235
     78 H          11.1551   -0.5107    0.0000 H       1  UNL1        0.0235
     79 H          10.9184    0.3335    0.0000 H       1  UNL1        0.0235
     80 H          10.0741    0.0968    0.0000 H       1  UNL1        0.0235
     81 H           2.0024    3.1564    0.0000 H       1  UNL1        0.2098
@<TRIPOS>BOND
     1     1     9    1
     2     1    17    1
     3     2    17    2
     4    29     3    1
     5     3    81    1
     6     4     5    1
     7     4     6    1
     8     4    13    1
     9     4    17    1
    10     5     8    1
    11     5     9    1
    12     5    20    1
    13     6     7    1
    14     6    15    1
    15     6    34    1
    16     7    10    1
    17     7    11    1
    18     7    21    1
    19     8    12    1
    20     8    19    1
    21     8    35    1
    22     9    11    1
    23     9    36    1
    24    10    14    1
    25    10    23    1
    26    10    37    1
    27    11    38    1
    28    11    39    1
    29    12    16    1
    30    12    22    1
    31    12    27    1
    32    13    16    1
    33    13    40    1
    34    13    41    1
    35    14    18    1
    36    14    24    1
    37    14    28    1
    38    15    18    1
    39    15    42    1
    40    15    43    1
    41    16    44    1
    42    16    45    1
    43    18    46    1
    44    18    47    1
    45    19    25    1
    46    19    48    1
    47    19    49    1
    48    20    50    1
    49    20    51    1
    50    20    52    1
    51    21    53    1
    52    21    54    1
    53    21    55    1
    54    22    26    1
    55    22    56    1
    56    22    57    1
    57    23    30    1
    58    23    58    1
    59    23    59    1
    60    24    29    1
    61    24    31    1
    62    24    60    1
    63    25    26    1
    64    25    32    1
    65    25    33    1
    66    26    61    1
    67    26    62    1
    68    27    63    1
    69    27    64    1
    70    27    65    1
    71    28    66    1
    72    28    67    1
    73    28    68    1
    74    29    30    1
    75    29    69    1
    76    30    70    1
    77    30    71    1
    78    31    72    1
    79    31    73    1
    80    31    74    1
    81    32    75    1
    82    32    76    1
    83    32    77    1
    84    33    78    1
    85    33    79    1
    86    33    80    1
