@<TRIPOS>MOLECULE
IMPHY006095
 58 61 0 0 0
SMALL
GASTEIGER

@<TRIPOS>ATOM
      1 O           8.1223   -2.0159    0.0000 O.3     1  UNL1       -0.3477
      2 O           5.5103    1.5125    0.0000 O.2     1  UNL1       -0.2885
      3 O           9.8438   -2.0487    0.0000 O.3     1  UNL1       -0.3669
      4 O           4.6497    1.0156    0.0000 O.2     1  UNL1       -0.2882
      5 O           7.2762    2.5503    0.0000 O.2     1  UNL1       -0.4917
      6 O           2.8680    0.0052    0.0000 O.2     1  UNL1       -0.4919
      7 C           7.2641   -0.5190    0.0000 C.3     1  UNL1        0.0118
      8 C           6.3981   -0.0190    0.0000 C.3     1  UNL1        0.0462
      9 C           5.5320   -0.5190    0.0000 C.3     1  UNL1        0.0477
     10 C           5.5320   -1.5190    0.0000 C.3     1  UNL1       -0.0193
     11 C           7.2641   -1.5190    0.0000 C.3     1  UNL1        0.0685
     12 C           8.1741   -0.0122    0.0000 C.3     1  UNL1       -0.0033
     13 C           6.3981   -2.0190    0.0000 C.3     1  UNL1       -0.0217
     14 C           4.6381   -2.0537    0.0000 C.3     1  UNL1       -0.0181
     15 C           7.2641    0.4810    0.0000 C.3     1  UNL1       -0.0560
     16 C           9.0134   -0.5404    0.0000 C.3     1  UNL1        0.0054
     17 C           6.3820    1.0225    0.0000 C.2     1  UNL1        0.2019
     18 C           8.1821    1.0294    0.0000 C.2     1  UNL1       -0.0237
     19 C           5.5320    0.4810    0.0000 C.3     1  UNL1       -0.0514
     20 C           4.6381    0.0157    0.0000 C.2     1  UNL1        0.2038
     21 C           8.9878   -1.5318    0.0000 C.3     1  UNL1        0.1571
     22 C           7.2800    1.5503    0.0000 C.2     1  UNL1        0.1619
     23 C           3.7320   -1.5398    0.0000 C.2     1  UNL1       -0.0356
     24 C           3.7320   -0.4982    0.0000 C.2     1  UNL1        0.1592
     25 C           4.6497   -3.0536    0.0000 C.3     1  UNL1       -0.0585
     26 C           9.0501    1.5261    0.0000 C.3     1  UNL1       -0.0397
     27 C           8.1403    3.0536    0.0000 C.3     1  UNL1        0.0789
     28 C           2.0000   -0.4915    0.0000 C.3     1  UNL1        0.0789
     29 H           5.6587    0.4003    0.0000 H       1  UNL1        0.0398
     30 H           5.5386   -2.3690    0.0000 H       1  UNL1        0.0317
     31 H           7.2636   -2.3690    0.0000 H       1  UNL1        0.0603
     32 H           8.9198    0.3959    0.0000 H       1  UNL1        0.0355
     33 H           5.9995   -2.4939    0.0000 H       1  UNL1        0.0293
     34 H           6.7966   -2.4939    0.0000 H       1  UNL1        0.0293
     35 H           4.1042   -2.3688    0.0000 H       1  UNL1        0.0344
     36 H           7.8841    0.4810    0.0000 H       1  UNL1        0.0236
     37 H           7.2641    1.1010    0.0000 H       1  UNL1        0.0236
     38 H           6.6441    0.4810    0.0000 H       1  UNL1        0.0236
     39 H           9.6205   -0.6663    0.0000 H       1  UNL1        0.0320
     40 H           9.2452    0.0347    0.0000 H       1  UNL1        0.0320
     41 H           6.1520    0.4810    0.0000 H       1  UNL1        0.0239
     42 H           5.5320    1.1010    0.0000 H       1  UNL1        0.0239
     43 H           4.9120    0.4810    0.0000 H       1  UNL1        0.0239
     44 H           8.9737   -2.3816    0.0000 H       1  UNL1        0.0907
     45 H           3.1963   -1.8519    0.0000 H       1  UNL1        0.0612
     46 H           4.0297   -3.0608    0.0000 H       1  UNL1        0.0235
     47 H           4.6568   -3.6736    0.0000 H       1  UNL1        0.0235
     48 H           5.2696   -3.0464    0.0000 H       1  UNL1        0.0235
     49 H           9.3580    0.9880    0.0000 H       1  UNL1        0.0276
     50 H           9.5882    1.8340    0.0000 H       1  UNL1        0.0276
     51 H           8.7422    2.0642    0.0000 H       1  UNL1        0.0276
     52 H           9.8316   -2.6686    0.0000 H       1  UNL1        0.2125
     53 H           8.4523    2.5178    0.0000 H       1  UNL1        0.0660
     54 H           8.6760    3.3657    0.0000 H       1  UNL1        0.0660
     55 H           7.8282    3.5893    0.0000 H       1  UNL1        0.0660
     56 H           1.6921    0.0466    0.0000 H       1  UNL1        0.0660
     57 H           1.4619   -0.7994    0.0000 H       1  UNL1        0.0660
     58 H           2.3079   -1.0296    0.0000 H       1  UNL1        0.0660
@<TRIPOS>BOND
     1     1    11    1
     2     1    21    1
     3     2    17    2
     4     3    21    1
     5     3    52    1
     6     4    20    2
     7     5    22    1
     8     5    27    1
     9     6    24    1
    10     6    28    1
    11     7     8    1
    12     7    11    1
    13     7    12    1
    14     7    15    1
    15     8     9    1
    16     8    17    1
    17     8    29    1
    18     9    10    1
    19     9    19    1
    20     9    20    1
    21    10    13    1
    22    10    14    1
    23    10    30    1
    24    11    13    1
    25    11    31    1
    26    12    16    1
    27    12    18    1
    28    12    32    1
    29    13    33    1
    30    13    34    1
    31    14    23    1
    32    14    25    1
    33    14    35    1
    34    15    36    1
    35    15    37    1
    36    15    38    1
    37    16    21    1
    38    16    39    1
    39    16    40    1
    40    17    22    1
    41    18    22    2
    42    18    26    1
    43    19    41    1
    44    19    42    1
    45    19    43    1
    46    20    24    1
    47    21    44    1
    48    23    24    2
    49    23    45    1
    50    25    46    1
    51    25    47    1
    52    25    48    1
    53    26    49    1
    54    26    50    1
    55    26    51    1
    56    27    53    1
    57    27    54    1
    58    27    55    1
    59    28    56    1
    60    28    57    1
    61    28    58    1
