@<TRIPOS>MOLECULE
IMPHY004492
 24 26 0 0 0
SMALL
GASTEIGER

@<TRIPOS>ATOM
      1 O           6.3580    2.1444    0.0000 O.2     1  UNL1       -0.4500
      2 O           2.8660    0.1098    0.0000 O.3     1  UNL1       -0.4652
      3 O           4.5981   -0.8902    0.0000 O.3     1  UNL1       -0.2830
      4 O           6.3465   -0.9248    0.0000 O.2     1  UNL1       -0.2862
      5 O           2.8660    2.1098    0.0000 O.3     1  UNL1       -0.2831
      6 O          10.7205   -1.4244    0.0000 O.3     1  UNL1       -0.4682
      7 O           8.9846   -2.4177    0.0000 O.3     1  UNL1       -0.2833
      8 C           5.4641    0.6098    0.0000 C.ar    1  UNL1        0.1156
      9 C           7.2641    0.5890    0.0000 C.ar    1  UNL1        0.0768
     10 C           5.4641    1.6098    0.0000 C.ar    1  UNL1        0.1550
     11 C           6.3580    0.0751    0.0000 C.ar    1  UNL1        0.2048
     12 C           8.1282    0.0856    0.0000 C.ar    1  UNL1        0.0095
     13 C           4.5981    0.1098    0.0000 C.ar    1  UNL1        0.2385
     14 C           3.7321    0.6098    0.0000 C.ar    1  UNL1        0.2165
     15 C           4.5981    2.1098    0.0000 C.ar    1  UNL1        0.0830
     16 C           7.2641    1.6306    0.0000 C.ar    1  UNL1        0.1826
     17 C           3.7321    1.6098    0.0000 C.ar    1  UNL1        0.2356
     18 C           8.1243   -0.9144    0.0000 C.ar    1  UNL1        0.0454
     19 C           8.9961    0.5823    0.0000 C.ar    1  UNL1        0.0035
     20 C           8.9884   -1.4177    0.0000 C.ar    1  UNL1        0.2293
     21 C           9.8602    0.0789    0.0000 C.ar    1  UNL1        0.0402
     22 C           9.8564   -0.9211    0.0000 C.ar    1  UNL1        0.1774
     23 C           2.0000    0.6098    0.0000 C.3     1  UNL1        0.2528
     24 C          11.5884   -0.9277    0.0000 C.3     1  UNL1        0.2526
@<TRIPOS>BOND
     1     1    10   ar
     2     1    16   ar
     3     2    14    1
     4     2    23    1
     5     3    13    1
     6     4    11    2
     7     5    17    1
     8     6    22    1
     9     6    24    1
    10     7    20    1
    11     8    10   ar
    12     8    11   ar
    13     8    13   ar
    14     9    11   ar
    15     9    12    1
    16     9    16   ar
    17    10    15   ar
    18    12    18   ar
    19    12    19   ar
    20    13    14   ar
    21    14    17   ar
    22    15    17   ar
    23    18    20   ar
    24    19    21   ar
    25    20    22   ar
    26    21    22   ar
