@<TRIPOS>MOLECULE
IMPHY014522
 115 120 0 0 0
SMALL
GASTEIGER

@<TRIPOS>ATOM
      1 O          16.5090    6.8495    0.0000 O.2     1  UNL1       -0.2965
      2 O           8.9282   -3.8108    0.0000 O.3     1  UNL1       -0.3484
      3 O           7.1962   -3.8108    0.0000 O.3     1  UNL1       -0.3394
      4 O           8.9282   -5.8108    0.0000 O.3     1  UNL1       -0.3841
      5 O           7.1962   -6.8108    0.0000 O.3     1  UNL1       -0.3853
      6 O           5.4641   -5.8108    0.0000 O.3     1  UNL1       -0.4524
      7 O           5.4641   -2.8108    0.0000 O.3     1  UNL1       -0.3923
      8 O           4.5981   -4.3108    0.0000 O.2     1  UNL1       -0.2449
      9 C          12.0203    3.2233    0.0000 C.3     1  UNL1       -0.0230
     10 C          12.3310    2.2728    0.0000 C.3     1  UNL1       -0.0233
     11 C          12.6882    3.9676    0.0000 C.3     1  UNL1       -0.0281
     12 C          13.6667    3.7614    0.0000 C.3     1  UNL1       -0.0283
     13 C          11.5263    1.6892    0.0000 C.3     1  UNL1       -0.0325
     14 C          11.0263    3.2190    0.0000 C.3     1  UNL1       -0.0466
     15 C          13.3095    2.0666    0.0000 C.3     1  UNL1       -0.0466
     16 C          14.3742    4.5258    0.0000 C.3     1  UNL1       -0.0067
     17 C          13.9774    2.8109    0.0000 C.3     1  UNL1       -0.0486
     18 C          10.7215    2.2728    0.0000 C.3     1  UNL1       -0.0489
     19 C          12.3494    4.9526    0.0000 C.3     1  UNL1       -0.0308
     20 C          11.7097    4.1738    0.0000 C.3     1  UNL1       -0.0588
     21 C          12.6417    1.3223    0.0000 C.3     1  UNL1       -0.0588
     22 C          11.5263    0.6892    0.0000 C.3     1  UNL1       -0.0405
     23 C          14.0583    5.5184    0.0000 C.2     1  UNL1       -0.0545
     24 C          15.4304    4.2776    0.0000 C.3     1  UNL1       -0.0369
     25 C          13.0390    5.7332    0.0000 C.2     1  UNL1       -0.0830
     26 C          14.7766    6.3315    0.0000 C.3     1  UNL1        0.0448
     27 C          14.6775    3.5730    0.0000 C.3     1  UNL1       -0.0555
     28 C          10.6603    0.1892    0.0000 C.3     1  UNL1       -0.0502
     29 C          16.1674    5.0739    0.0000 C.3     1  UNL1        0.0075
     30 C          12.3923    0.1892    0.0000 C.3     1  UNL1       -0.0621
     31 C          15.8383    6.1078    0.0000 C.2     1  UNL1        0.1429
     32 C          14.9791    7.3108    0.0000 C.3     1  UNL1       -0.0493
     33 C          14.0298    6.9965    0.0000 C.3     1  UNL1       -0.0493
     34 C          10.6603   -0.8108    0.0000 C.3     1  UNL1       -0.0525
     35 C           9.7942   -1.3108    0.0000 C.3     1  UNL1       -0.0484
     36 C           9.7942   -2.3108    0.0000 C.3     1  UNL1       -0.0203
     37 C           8.9282   -2.8108    0.0000 C.3     1  UNL1        0.0533
     38 C          10.6603   -2.8108    0.0000 C.3     1  UNL1       -0.0603
     39 C           8.0622   -4.3108    0.0000 C.3     1  UNL1        0.1880
     40 C           8.0622   -5.3108    0.0000 C.3     1  UNL1        0.1352
     41 C           7.1962   -5.8108    0.0000 C.3     1  UNL1        0.1251
     42 C           6.3301   -4.3108    0.0000 C.3     1  UNL1        0.1240
     43 C           6.3301   -5.3108    0.0000 C.3     1  UNL1        0.1598
     44 C           5.4641   -3.8108    0.0000 C.3     1  UNL1        0.0741
     45 C           4.5981   -5.3108    0.0000 C.2     1  UNL1        0.3396
     46 C           3.7320   -5.8108    0.0000 C.ar    1  UNL1        0.0590
     47 C           2.8660   -5.3108    0.0000 C.ar    1  UNL1       -0.0478
     48 C           3.7320   -6.8108    0.0000 C.ar    1  UNL1       -0.0478
     49 C           2.0000   -5.8108    0.0000 C.ar    1  UNL1       -0.0610
     50 C           2.8660   -7.3108    0.0000 C.ar    1  UNL1       -0.0610
     51 C           2.0000   -6.8108    0.0000 C.ar    1  UNL1       -0.0617
     52 H          13.2510    4.6046    0.0000 H       1  UNL1        0.0312
     53 H          14.4971    3.5797    0.0000 H       1  UNL1        0.0312
     54 H          10.7691    1.3030    0.0000 H       1  UNL1        0.0309
     55 H          11.0888    3.8358    0.0000 H       1  UNL1        0.0271
     56 H          10.4194    3.3460    0.0000 H       1  UNL1        0.0271
     57 H          13.0783    1.4913    0.0000 H       1  UNL1        0.0271
     58 H          13.8359    1.7389    0.0000 H       1  UNL1        0.0271
     59 H          14.3599    2.3230    0.0000 H       1  UNL1        0.0268
     60 H          14.5243    3.1029    0.0000 H       1  UNL1        0.0268
     61 H          10.1546    2.5238    0.0000 H       1  UNL1        0.0268
     62 H          10.4123    1.7354    0.0000 H       1  UNL1        0.0268
     63 H          11.9618    5.4365    0.0000 H       1  UNL1        0.0310
     64 H          11.8062    4.6536    0.0000 H       1  UNL1        0.0310
     65 H          12.2990    4.3664    0.0000 H       1  UNL1        0.0235
     66 H          11.5171    4.7631    0.0000 H       1  UNL1        0.0235
     67 H          11.1204    3.9812    0.0000 H       1  UNL1        0.0235
     68 H          12.0524    1.1296    0.0000 H       1  UNL1        0.0235
     69 H          12.8343    0.7329    0.0000 H       1  UNL1        0.0235
     70 H          13.2310    1.5149    0.0000 H       1  UNL1        0.0235
     71 H          12.0632    0.9992    0.0000 H       1  UNL1        0.0301
     72 H          15.1874    3.7072    0.0000 H       1  UNL1        0.0278
     73 H          15.9508    3.9406    0.0000 H       1  UNL1        0.0278
     74 H          12.8441    6.3218    0.0000 H       1  UNL1        0.0572
     75 H          14.0868    3.3849    0.0000 H       1  UNL1        0.0238
     76 H          14.8656    2.9822    0.0000 H       1  UNL1        0.0238
     77 H          15.2683    3.7610    0.0000 H       1  UNL1        0.0238
     78 H          10.4482    0.7718    0.0000 H       1  UNL1        0.0268
     79 H          10.0497    0.0815    0.0000 H       1  UNL1        0.0268
     80 H          16.5437    4.5811    0.0000 H       1  UNL1        0.0342
     81 H          16.7173    5.3603    0.0000 H       1  UNL1        0.0342
     82 H          12.0823   -0.3478    0.0000 H       1  UNL1        0.0233
     83 H          12.9292   -0.1208    0.0000 H       1  UNL1        0.0233
     84 H          12.7023    0.7261    0.0000 H       1  UNL1        0.0233
     85 H          15.5862    7.1853    0.0000 H       1  UNL1        0.0242
     86 H          15.1046    7.9180    0.0000 H       1  UNL1        0.0242
     87 H          14.3719    7.4364    0.0000 H       1  UNL1        0.0242
     88 H          14.4420    7.4596    0.0000 H       1  UNL1        0.0242
     89 H          13.5667    7.4088    0.0000 H       1  UNL1        0.0242
     90 H          13.6175    6.5334    0.0000 H       1  UNL1        0.0242
     91 H          10.8723   -1.3934    0.0000 H       1  UNL1        0.0265
     92 H          11.2708   -0.7032    0.0000 H       1  UNL1        0.0265
     93 H           9.5822   -0.7282    0.0000 H       1  UNL1        0.0269
     94 H           9.1836   -1.4185    0.0000 H       1  UNL1        0.0269
     95 H           9.7942   -2.9308    0.0000 H       1  UNL1        0.0320
     96 H           8.7162   -2.2282    0.0000 H       1  UNL1        0.0563
     97 H           8.3176   -2.9185    0.0000 H       1  UNL1        0.0563
     98 H          10.3503   -3.3478    0.0000 H       1  UNL1        0.0233
     99 H          11.1972   -3.1208    0.0000 H       1  UNL1        0.0233
    100 H          10.9703   -2.2739    0.0000 H       1  UNL1        0.0233
    101 H           8.5991   -4.6208    0.0000 H       1  UNL1        0.0937
    102 H           8.0622   -5.9308    0.0000 H       1  UNL1        0.0671
    103 H           6.6592   -6.1208    0.0000 H       1  UNL1        0.0659
    104 H           6.3301   -3.6908    0.0000 H       1  UNL1        0.0658
    105 H           6.3301   -5.9308    0.0000 H       1  UNL1        0.0788
    106 H           9.4651   -5.5008    0.0000 H       1  UNL1        0.2101
    107 H           4.8535   -3.7032    0.0000 H       1  UNL1        0.0584
    108 H           5.2520   -4.3934    0.0000 H       1  UNL1        0.0584
    109 H           7.7331   -7.1208    0.0000 H       1  UNL1        0.2101
    110 H           4.9272   -2.5008    0.0000 H       1  UNL1        0.2095
    111 H           2.8660   -4.6908    0.0000 H       1  UNL1        0.0626
    112 H           4.2690   -7.1208    0.0000 H       1  UNL1        0.0626
    113 H           1.4631   -5.5008    0.0000 H       1  UNL1        0.0618
    114 H           2.8660   -7.9308    0.0000 H       1  UNL1        0.0618
    115 H           1.4631   -7.1208    0.0000 H       1  UNL1        0.0618
@<TRIPOS>BOND
     1     1    31    2
     2     2    37    1
     3    39     2    1
     4     3    39    1
     5     3    42    1
     6    40     4    1
     7     4   106    1
     8    41     5    1
     9     5   109    1
    10    43     6    1
    11     6    45    1
    12     7    44    1
    13     7   110    1
    14     8    45    2
    15     9    10    1
    16     9    11    1
    17     9    14    1
    18     9    20    1
    19    10    13    1
    20    10    15    1
    21    10    21    1
    22    11    12    1
    23    11    19    1
    24    11    52    1
    25    12    16    1
    26    12    17    1
    27    12    53    1
    28    13    18    1
    29    13    22    1
    30    13    54    1
    31    14    18    1
    32    14    55    1
    33    14    56    1
    34    15    17    1
    35    15    57    1
    36    15    58    1
    37    16    23    1
    38    16    24    1
    39    16    27    1
    40    17    59    1
    41    17    60    1
    42    18    61    1
    43    18    62    1
    44    19    25    1
    45    19    63    1
    46    19    64    1
    47    20    65    1
    48    20    66    1
    49    20    67    1
    50    21    68    1
    51    21    69    1
    52    21    70    1
    53    22    28    1
    54    22    30    1
    55    22    71    1
    56    23    25    2
    57    23    26    1
    58    24    29    1
    59    24    72    1
    60    24    73    1
    61    25    74    1
    62    26    31    1
    63    26    32    1
    64    26    33    1
    65    27    75    1
    66    27    76    1
    67    27    77    1
    68    28    34    1
    69    28    78    1
    70    28    79    1
    71    29    31    1
    72    29    80    1
    73    29    81    1
    74    30    82    1
    75    30    83    1
    76    30    84    1
    77    32    85    1
    78    32    86    1
    79    32    87    1
    80    33    88    1
    81    33    89    1
    82    33    90    1
    83    34    35    1
    84    34    91    1
    85    34    92    1
    86    35    36    1
    87    35    93    1
    88    35    94    1
    89    36    37    1
    90    36    38    1
    91    36    95    1
    92    37    96    1
    93    37    97    1
    94    38    98    1
    95    38    99    1
    96    38   100    1
    97    39    40    1
    98    39   101    1
    99    40    41    1
   100    40   102    1
   101    41    43    1
   102    41   103    1
   103    42    43    1
   104    42    44    1
   105    42   104    1
   106    43   105    1
   107    44   107    1
   108    44   108    1
   109    45    46    1
   110    46    47   ar
   111    46    48   ar
   112    47    49   ar
   113    47   111    1
   114    48    50   ar
   115    48   112    1
   116    49    51   ar
   117    49   113    1
   118    50    51   ar
   119    50   114    1
   120    51   115    1
