@<TRIPOS>MOLECULE
IMPHY014002
 32 33 0 0 0
SMALL
GASTEIGER

@<TRIPOS>ATOM
      1 O           2.0000    1.0000    0.0000 O.2     1  UNL1       -0.2880
      2 O           2.0000   -1.0000    0.0000 O.2     1  UNL1       -0.2880
      3 C           3.7320    1.0000    0.0000 C.3     1  UNL1        0.0560
      4 C           3.7320   -1.0000    0.0000 C.3     1  UNL1        0.0560
      5 C           4.5981    0.5000    0.0000 C.ar    1  UNL1       -0.0300
      6 C           4.5981   -0.5000    0.0000 C.ar    1  UNL1       -0.0300
      7 C           2.8660    0.5000    0.0000 C.2     1  UNL1        0.2088
      8 C           2.8660   -0.5000    0.0000 C.2     1  UNL1        0.2088
      9 C           3.2320    1.8660    0.0000 C.3     1  UNL1       -0.0486
     10 C           4.2320    1.8660    0.0000 C.3     1  UNL1       -0.0486
     11 C           3.2320   -1.8660    0.0000 C.3     1  UNL1       -0.0486
     12 C           4.2320   -1.8660    0.0000 C.3     1  UNL1       -0.0486
     13 C           5.4920    1.0347    0.0000 C.ar    1  UNL1       -0.0573
     14 C           5.4920   -1.0347    0.0000 C.ar    1  UNL1       -0.0573
     15 C           6.3981    0.5208    0.0000 C.ar    1  UNL1       -0.0615
     16 C           6.3981   -0.5208    0.0000 C.ar    1  UNL1       -0.0615
     17 H           3.7690    2.1760    0.0000 H       1  UNL1        0.0242
     18 H           2.9220    2.4030    0.0000 H       1  UNL1        0.0242
     19 H           2.6951    1.5560    0.0000 H       1  UNL1        0.0242
     20 H           4.7690    1.5560    0.0000 H       1  UNL1        0.0242
     21 H           4.5420    2.4030    0.0000 H       1  UNL1        0.0242
     22 H           3.6951    2.1760    0.0000 H       1  UNL1        0.0242
     23 H           2.6951   -1.5560    0.0000 H       1  UNL1        0.0242
     24 H           2.9220   -2.4030    0.0000 H       1  UNL1        0.0242
     25 H           3.7690   -2.1760    0.0000 H       1  UNL1        0.0242
     26 H           3.6951   -2.1760    0.0000 H       1  UNL1        0.0242
     27 H           4.5420   -2.4030    0.0000 H       1  UNL1        0.0242
     28 H           4.7690   -1.5560    0.0000 H       1  UNL1        0.0242
     29 H           5.4848    1.6546    0.0000 H       1  UNL1        0.0621
     30 H           5.4848   -1.6546    0.0000 H       1  UNL1        0.0621
     31 H           6.9338    0.8329    0.0000 H       1  UNL1        0.0618
     32 H           6.9338   -0.8329    0.0000 H       1  UNL1        0.0618
@<TRIPOS>BOND
     1     1     7    2
     2     2     8    2
     3     3     5    1
     4     3     7    1
     5     3     9    1
     6     3    10    1
     7     4     6    1
     8     4     8    1
     9     4    11    1
    10     4    12    1
    11     5     6   ar
    12     5    13   ar
    13     6    14   ar
    14     7     8    1
    15     9    17    1
    16     9    18    1
    17     9    19    1
    18    10    20    1
    19    10    21    1
    20    10    22    1
    21    11    23    1
    22    11    24    1
    23    11    25    1
    24    12    26    1
    25    12    27    1
    26    12    28    1
    27    13    15   ar
    28    13    29    1
    29    14    16   ar
    30    14    30    1
    31    15    16   ar
    32    15    31    1
    33    16    32    1
