@<TRIPOS>MOLECULE
IMPHY002149
 32 35 0 0 0
SMALL
GASTEIGER

@<TRIPOS>ATOM
      1 O           5.5501    1.0008    0.0000 O.3     1  UNL1       -0.3384
      2 O           5.3598   -1.4827    0.0000 O.3     1  UNL1       -0.4471
      3 O           3.7040    1.5168    0.0000 O.3     1  UNL1       -0.3226
      4 O           2.0000    1.6741    0.0000 O.3     1  UNL1       -0.3668
      5 O           6.9416   -2.2908    0.0000 O.2     1  UNL1       -0.2452
      6 C           4.2411    0.0497    0.0000 C.3     1  UNL1        0.0630
      7 C           5.0501   -0.5381    0.0000 C.3     1  UNL1        0.1701
      8 C           3.4384   -0.5367    0.0000 C.3     1  UNL1       -0.0067
      9 C           5.8591    0.0497    0.0000 C.3     1  UNL1        0.1366
     10 C           4.5501    1.0008    0.0000 C.3     1  UNL1        0.1704
     11 C           4.7405   -1.4827    0.0000 C.2     1  UNL1       -0.0413
     12 C           2.6832    0.1052    0.0000 C.3     1  UNL1        0.0051
     13 C           3.7464   -1.4818    0.0000 C.2     1  UNL1       -0.0803
     14 C           6.6618   -0.5367    0.0000 C.2     1  UNL1        0.0652
     15 C           2.8103    1.0881    0.0000 C.3     1  UNL1        0.1597
     16 C           6.3538   -1.4818    0.0000 C.2     1  UNL1        0.3384
     17 C           7.6134   -0.2293    0.0000 C.2     1  UNL1       -0.0745
     18 C           8.3554   -0.8997    0.0000 C.3     1  UNL1       -0.0460
     19 H           3.9784   -0.7587    0.0000 H       1  UNL1        0.0399
     20 H           2.7324   -1.0100    0.0000 H       1  UNL1        0.0350
     21 H           6.5474    0.5484    0.0000 H       1  UNL1        0.0693
     22 H           4.7800    1.8191    0.0000 H       1  UNL1        0.0915
     23 H           5.1040   -1.9849    0.0000 H       1  UNL1        0.0609
     24 H           2.0948    0.3006    0.0000 H       1  UNL1        0.0320
     25 H           2.3792   -0.4351    0.0000 H       1  UNL1        0.0320
     26 H           3.3820   -1.9834    0.0000 H       1  UNL1        0.0573
     27 H           2.2412    0.8421    0.0000 H       1  UNL1        0.0908
     28 H           7.7434    0.3769    0.0000 H       1  UNL1        0.0575
     29 H           2.0634    2.2908    0.0000 H       1  UNL1        0.2125
     30 H           7.9398   -1.3597    0.0000 H       1  UNL1        0.0272
     31 H           8.8154   -1.3154    0.0000 H       1  UNL1        0.0272
     32 H           8.7711   -0.4397    0.0000 H       1  UNL1        0.0272
@<TRIPOS>BOND
     1     1     9    1
     2     1    10    1
     3     7     2    1
     4     2    16    1
     5     3    10    1
     6     3    15    1
     7    15     4    1
     8     4    29    1
     9     5    16    2
    10     6     7    1
    11     6     8    1
    12     6    10    1
    13     6    19    1
    14     7     9    1
    15     7    11    1
    16     8    12    1
    17     8    13    1
    18     8    20    1
    19     9    14    1
    20     9    21    1
    21    10    22    1
    22    11    13    2
    23    11    23    1
    24    12    15    1
    25    12    24    1
    26    12    25    1
    27    13    26    1
    28    14    16    1
    29    14    17    2
    30    15    27    1
    31    17    18    1
    32    17    28    1
    33    18    30    1
    34    18    31    1
    35    18    32    1
