@<TRIPOS>MOLECULE
IMPHY001939
 21 21 0 0 0
SMALL
GASTEIGER

@<TRIPOS>ATOM
      1 O           6.3660    1.2806    0.0000 O.3     1  UNL1       -0.4795
      2 OXT         6.3660   -0.4515    0.0000 O.2     1  UNL1       -0.2493
      3 N           4.3660    1.2806    0.0000 N.3     1  UNL1       -0.3184
      4 C           3.3660   -0.4515    0.0000 C.3     1  UNL1       -0.0145
      5 C           2.5000    0.0485    0.0000 C.3     1  UNL1       -0.0251
      6 C           2.5000   -0.9515    0.0000 C.2     1  UNL1       -0.0726
      7 C           4.3660   -0.4515    0.0000 C.3     1  UNL1       -0.0206
      8 CA          4.8660    0.4145    0.0000 C.3     1  UNL1        0.1038
      9 C           2.0000   -1.8175    0.0000 C.2     1  UNL1       -0.0992
     10 C           5.8660    0.4145    0.0000 C.2     1  UNL1        0.3217
     11 H           3.5265   -1.0503    0.0000 H       1  UNL1        0.0349
     12 H           2.7120    0.6311    0.0000 H       1  UNL1        0.0316
     13 H           1.8894    0.1562    0.0000 H       1  UNL1        0.0316
     14 H           4.2584   -1.0621    0.0000 H       1  UNL1        0.0291
     15 H           4.9486   -0.6635    0.0000 H       1  UNL1        0.0291
     16 HA          4.2460    0.4145    0.0000 H       1  UNL1        0.0574
     17 H           1.3800   -1.8175    0.0000 H       1  UNL1        0.0534
     18 H           2.3100   -2.3544    0.0000 H       1  UNL1        0.0534
     19 H1          4.6760    1.8175    0.0000 H       1  UNL1        0.1190
     20 H2          3.7460    1.2806    0.0000 H       1  UNL1        0.1190
     21 H           6.9860    1.2806    0.0000 H       1  UNL1        0.2951
@<TRIPOS>BOND
     1     1    10    1
     2     1    21    1
     3     2    10    2
     4     8     3    1
     5     3    19    1
     6     3    20    1
     7     4     5    1
     8     4     6    1
     9     4     7    1
    10     4    11    1
    11     5     6    1
    12     5    12    1
    13     5    13    1
    14     6     9    2
    15     7     8    1
    16     7    14    1
    17     7    15    1
    18     8    10    1
    19     8    16    1
    20     9    17    1
    21     9    18    1
