@<TRIPOS>MOLECULE
IMPHY015304
 40 39 0 0 0
SMALL
GASTEIGER

@<TRIPOS>ATOM
      1 O           2.8660    1.6550    0.0000 O.3     1  UNL1       -0.3830
      2 O           4.5981   -1.3450    0.0000 O.3     1  UNL1       -0.3950
      3 C           5.4641    1.1550    0.0000 C.3     1  UNL1       -0.0369
      4 C           6.3301    1.6550    0.0000 C.3     1  UNL1       -0.0501
      5 C           7.1962    1.1550    0.0000 C.3     1  UNL1       -0.0528
      6 C           4.5981    1.6550    0.0000 C.3     1  UNL1       -0.0266
      7 C           5.4641    0.1550    0.0000 C.3     1  UNL1       -0.0268
      8 C           8.0622    1.6550    0.0000 C.3     1  UNL1       -0.0531
      9 C           8.9282    1.1550    0.0000 C.3     1  UNL1       -0.0533
     10 C           3.7320    1.1550    0.0000 C.3     1  UNL1        0.0476
     11 C           4.5981   -0.3450    0.0000 C.3     1  UNL1        0.0445
     12 C           9.7942    1.6550    0.0000 C.3     1  UNL1       -0.0559
     13 C          10.6603    1.1550    0.0000 C.3     1  UNL1       -0.0653
     14 C           2.0000    1.1550    0.0000 C.3     1  UNL1        0.0364
     15 H           5.4641    1.7750    0.0000 H       1  UNL1        0.0302
     16 H           6.7287    2.1300    0.0000 H       1  UNL1        0.0268
     17 H           5.9316    2.1300    0.0000 H       1  UNL1        0.0268
     18 H           6.7976    0.6801    0.0000 H       1  UNL1        0.0265
     19 H           7.5947    0.6801    0.0000 H       1  UNL1        0.0265
     20 H           4.9966    2.1300    0.0000 H       1  UNL1        0.0290
     21 H           4.1996    2.1300    0.0000 H       1  UNL1        0.0290
     22 H           5.6762   -0.4276    0.0000 H       1  UNL1        0.0290
     23 H           6.0747    0.2627    0.0000 H       1  UNL1        0.0290
     24 H           8.4607    2.1300    0.0000 H       1  UNL1        0.0265
     25 H           7.6636    2.1300    0.0000 H       1  UNL1        0.0265
     26 H           8.5297    0.6801    0.0000 H       1  UNL1        0.0265
     27 H           9.3267    0.6801    0.0000 H       1  UNL1        0.0265
     28 H           3.3335    0.6801    0.0000 H       1  UNL1        0.0560
     29 H           4.1306    0.6801    0.0000 H       1  UNL1        0.0560
     30 H           4.3860    0.2376    0.0000 H       1  UNL1        0.0557
     31 H           3.9875   -0.4527    0.0000 H       1  UNL1        0.0557
     32 H          10.1928    2.1300    0.0000 H       1  UNL1        0.0263
     33 H           9.3957    2.1300    0.0000 H       1  UNL1        0.0263
     34 H          10.3503    0.6181    0.0000 H       1  UNL1        0.0230
     35 H          11.1972    0.8450    0.0000 H       1  UNL1        0.0230
     36 H          10.9703    1.6919    0.0000 H       1  UNL1        0.0230
     37 H           4.0611   -1.6550    0.0000 H       1  UNL1        0.2094
     38 H           1.6900    1.6919    0.0000 H       1  UNL1        0.0523
     39 H           1.4631    0.8450    0.0000 H       1  UNL1        0.0523
     40 H           2.3100    0.6181    0.0000 H       1  UNL1        0.0523
@<TRIPOS>BOND
     1     1    10    1
     2     1    14    1
     3     2    11    1
     4     2    37    1
     5     3     4    1
     6     3     6    1
     7     3     7    1
     8     3    15    1
     9     4     5    1
    10     4    16    1
    11     4    17    1
    12     5     8    1
    13     5    18    1
    14     5    19    1
    15     6    10    1
    16     6    20    1
    17     6    21    1
    18     7    11    1
    19     7    22    1
    20     7    23    1
    21     8     9    1
    22     8    24    1
    23     8    25    1
    24     9    12    1
    25     9    26    1
    26     9    27    1
    27    10    28    1
    28    10    29    1
    29    11    30    1
    30    11    31    1
    31    12    13    1
    32    12    32    1
    33    12    33    1
    34    13    34    1
    35    13    35    1
    36    13    36    1
    37    14    38    1
    38    14    39    1
    39    14    40    1
