@<TRIPOS>MOLECULE
IMPHY017519
 26 27 0 0 0
SMALL
GASTEIGER

@<TRIPOS>ATOM
      1 O           2.8660   -1.2673    0.0000 O.3     1  UNL1       -0.3752
      2 C           2.8660   -0.2673    0.0000 C.3     1  UNL1        0.0835
      3 C           2.0000    0.2327    0.0000 C.3     1  UNL1       -0.0221
      4 C           2.0000    1.2327    0.0000 C.3     1  UNL1       -0.0464
      5 C           2.8660    1.7327    0.0000 C.3     1  UNL1       -0.0272
      6 C           3.7320    0.2327    0.0000 C.ar    1  UNL1       -0.0157
      7 C           3.7320    1.2327    0.0000 C.ar    1  UNL1       -0.0417
      8 C           4.6260   -0.3020    0.0000 C.ar    1  UNL1       -0.0559
      9 C           4.6260    1.7673    0.0000 C.ar    1  UNL1       -0.0582
     10 C           5.5321    0.2119    0.0000 C.ar    1  UNL1       -0.0614
     11 C           5.5321    1.2535    0.0000 C.ar    1  UNL1       -0.0615
     12 C           2.0000   -1.7673    0.0000 C.3     1  UNL1        0.0372
     13 H           3.4030   -0.5773    0.0000 H       1  UNL1        0.0646
     14 H           1.3894    0.3403    0.0000 H       1  UNL1        0.0294
     15 H           1.7880   -0.3499    0.0000 H       1  UNL1        0.0294
     16 H           1.7880    1.8153    0.0000 H       1  UNL1        0.0269
     17 H           1.3894    1.1250    0.0000 H       1  UNL1        0.0269
     18 H           3.2646    2.2076    0.0000 H       1  UNL1        0.0313
     19 H           2.4675    2.2076    0.0000 H       1  UNL1        0.0313
     20 H           4.6188   -0.9220    0.0000 H       1  UNL1        0.0621
     21 H           4.6188    2.3873    0.0000 H       1  UNL1        0.0620
     22 H           6.0678   -0.1002    0.0000 H       1  UNL1        0.0618
     23 H           6.0678    1.5656    0.0000 H       1  UNL1        0.0618
     24 H           1.6900   -1.2304    0.0000 H       1  UNL1        0.0524
     25 H           1.4631   -2.0773    0.0000 H       1  UNL1        0.0524
     26 H           2.3100   -2.3043    0.0000 H       1  UNL1        0.0524
@<TRIPOS>BOND
     1     1     2    1
     2     1    12    1
     3     2     3    1
     4     2     6    1
     5     2    13    1
     6     3     4    1
     7     3    14    1
     8     3    15    1
     9     4     5    1
    10     4    16    1
    11     4    17    1
    12     5     7    1
    13     5    18    1
    14     5    19    1
    15     6     7   ar
    16     6     8   ar
    17     7     9   ar
    18     8    10   ar
    19     8    20    1
    20     9    11   ar
    21     9    21    1
    22    10    11   ar
    23    10    22    1
    24    11    23    1
    25    12    24    1
    26    12    25    1
    27    12    26    1
