@<TRIPOS>MOLECULE
IMPHY013793
 20 20 0 0 0
SMALL
GASTEIGER

@<TRIPOS>ATOM
      1 O           2.0000   -2.5000    0.0000 O.co2   1  UNL1       -0.5547
      2 O           3.7320    2.5000    0.0000 O.co2   1  UNL1       -0.5547
      3 O           3.7320   -2.5000    0.0000 O.2     1  UNL1        0.0677
      4 O           2.0000    2.5000    0.0000 O.2     1  UNL1        0.0677
      5 N           2.8660   -1.0000    0.0000 N.pl3   1  UNL1       -0.0814
      6 N           2.8660    1.0000    0.0000 N.pl3   1  UNL1       -0.0814
      7 N           2.8660   -2.0000    0.0000 N.pl3   1  UNL1        0.1668
      8 N           2.8660    2.0000    0.0000 N.pl3   1  UNL1        0.1668
      9 C           2.0000    0.5000    0.0000 C.3     1  UNL1        0.0932
     10 C           2.0000   -0.5000    0.0000 C.3     1  UNL1        0.0932
     11 C           3.7320    0.5000    0.0000 C.3     1  UNL1        0.0932
     12 C           3.7320   -0.5000    0.0000 C.3     1  UNL1        0.0932
     13 H           1.3894    0.3923    0.0000 H       1  UNL1        0.0538
     14 H           1.7880    1.0826    0.0000 H       1  UNL1        0.0538
     15 H           3.9441    1.0826    0.0000 H       1  UNL1        0.0538
     16 H           4.3426    0.3923    0.0000 H       1  UNL1        0.0538
     17 H           1.3894   -0.3923    0.0000 H       1  UNL1        0.0538
     18 H           1.7880   -1.0826    0.0000 H       1  UNL1        0.0538
     19 H           3.9441   -1.0826    0.0000 H       1  UNL1        0.0538
     20 H           4.3426   -0.3923    0.0000 H       1  UNL1        0.0538
@<TRIPOS>UNITY_ATOM_ATTR
1 1
charge -1
2 1
charge -1
7 1
charge 1
8 1
charge 1
@<TRIPOS>BOND
     1     1     7    1
     2     2     8    1
     3     3     7    2
     4     4     8    2
     5     5     7    1
     6     5    10    1
     7     5    12    1
     8     6     8    1
     9     6     9    1
    10     6    11    1
    11     9    10    1
    12     9    13    1
    13     9    14    1
    14    10    17    1
    15    10    18    1
    16    11    12    1
    17    11    15    1
    18    11    16    1
    19    12    19    1
    20    12    20    1
