@<TRIPOS>MOLECULE
IMPHY005754
 99 102 0 0 0
SMALL
GASTEIGER

@<TRIPOS>ATOM
      1 O           5.4646   -4.6362    0.0000 O.3     1  UNL1       -0.3565
      2 O          18.0976    5.3904    0.0000 O.3     1  UNL1       -0.3566
      3 O           2.0000   -5.6362    0.0000 O.3     1  UNL1       -0.3917
      4 C           4.5981   -4.1362    0.0000 C.3     1  UNL1        0.1224
      5 C           4.5981   -5.1362    0.0000 C.3     1  UNL1        0.1032
      6 C          18.5981    4.5241    0.0000 C.3     1  UNL1        0.1223
      7 C          19.0981    5.3901    0.0000 C.3     1  UNL1        0.1009
      8 C           3.7320   -3.6362    0.0000 C.3     1  UNL1        0.0029
      9 C          19.0981    3.6581    0.0000 C.3     1  UNL1        0.0005
     10 C           3.7320   -5.6362    0.0000 C.3     1  UNL1        0.0052
     11 C           2.8660   -4.1362    0.0000 C.3     1  UNL1       -0.0186
     12 C          20.0981    5.3901    0.0000 C.3     1  UNL1       -0.0209
     13 C           2.8660   -5.1362    0.0000 C.3     1  UNL1        0.0585
     14 C          20.0981    3.6581    0.0000 C.3     1  UNL1       -0.0448
     15 C          20.5981    4.5241    0.0000 C.3     1  UNL1       -0.0498
     16 C           4.5981   -6.1362    0.0000 C.3     1  UNL1       -0.0326
     17 C           5.0981   -3.2701    0.0000 C.2     1  UNL1       -0.0491
     18 C          19.5981    6.2562    0.0000 C.3     1  UNL1       -0.0327
     19 C           2.8660   -3.1362    0.0000 C.3     1  UNL1       -0.0567
     20 C           3.7320   -2.6362    0.0000 C.3     1  UNL1       -0.0567
     21 C          18.0981    3.6581    0.0000 C.2     1  UNL1       -0.0491
     22 C          19.5982    2.7921    0.0000 C.3     1  UNL1       -0.0568
     23 C          18.9244    2.6733    0.0000 C.3     1  UNL1       -0.0568
     24 C           6.0981   -3.2701    0.0000 C.2     1  UNL1       -0.0600
     25 C          17.0981    3.6581    0.0000 C.2     1  UNL1       -0.0600
     26 C           6.5981   -2.4041    0.0000 C.2     1  UNL1       -0.0507
     27 C          16.5981    2.7920    0.0000 C.2     1  UNL1       -0.0507
     28 C           6.0981   -1.5381    0.0000 C.3     1  UNL1       -0.0397
     29 C          17.0981    1.9260    0.0000 C.3     1  UNL1       -0.0397
     30 C           7.5981   -2.4041    0.0000 C.2     1  UNL1       -0.0588
     31 C          15.5981    2.7920    0.0000 C.2     1  UNL1       -0.0588
     32 C           8.0981   -1.5381    0.0000 C.2     1  UNL1       -0.0613
     33 C          15.0981    1.9260    0.0000 C.2     1  UNL1       -0.0613
     34 C           9.0981   -1.5381    0.0000 C.2     1  UNL1       -0.0588
     35 C          14.0981    1.9260    0.0000 C.2     1  UNL1       -0.0588
     36 C           9.5981   -0.6721    0.0000 C.2     1  UNL1       -0.0504
     37 C          13.5981    1.0600    0.0000 C.2     1  UNL1       -0.0504
     38 C           9.0981    0.1940    0.0000 C.3     1  UNL1       -0.0397
     39 C          10.5981   -0.6721    0.0000 C.2     1  UNL1       -0.0588
     40 C          14.0981    0.1940    0.0000 C.3     1  UNL1       -0.0397
     41 C          12.5981    1.0600    0.0000 C.2     1  UNL1       -0.0588
     42 C          11.0981    0.1940    0.0000 C.2     1  UNL1       -0.0615
     43 C          12.0981    0.1940    0.0000 C.2     1  UNL1       -0.0615
     44 H           3.3335   -6.1111    0.0000 H       1  UNL1        0.0319
     45 H           4.1306   -6.1111    0.0000 H       1  UNL1        0.0319
     46 H           2.6540   -3.5535    0.0000 H       1  UNL1        0.0296
     47 H           2.2554   -4.2438    0.0000 H       1  UNL1        0.0296
     48 H          20.6807    5.6022    0.0000 H       1  UNL1        0.0294
     49 H          19.9904    6.0007    0.0000 H       1  UNL1        0.0294
     50 H           2.8660   -5.7562    0.0000 H       1  UNL1        0.0594
     51 H          19.9904    3.0475    0.0000 H       1  UNL1        0.0271
     52 H          20.6807    3.4460    0.0000 H       1  UNL1        0.0271
     53 H          21.0730    4.1256    0.0000 H       1  UNL1        0.0266
     54 H          21.0730    4.9226    0.0000 H       1  UNL1        0.0266
     55 H           3.9781   -6.1362    0.0000 H       1  UNL1        0.0258
     56 H           4.5981   -6.7562    0.0000 H       1  UNL1        0.0258
     57 H           5.2181   -6.1362    0.0000 H       1  UNL1        0.0258
     58 H           4.7881   -2.7332    0.0000 H       1  UNL1        0.0602
     59 H          20.1350    5.9462    0.0000 H       1  UNL1        0.0258
     60 H          19.9081    6.7931    0.0000 H       1  UNL1        0.0258
     61 H          19.0611    6.5662    0.0000 H       1  UNL1        0.0258
     62 H           4.3520   -2.6362    0.0000 H       1  UNL1        0.0236
     63 H           3.7320   -2.0162    0.0000 H       1  UNL1        0.0236
     64 H           3.1760   -2.5992    0.0000 H       1  UNL1        0.0236
     65 H           2.3291   -2.8262    0.0000 H       1  UNL1        0.0236
     66 H           2.5560   -3.6731    0.0000 H       1  UNL1        0.0236
     67 H           3.1120   -2.6362    0.0000 H       1  UNL1        0.0236
     68 H          18.2057    3.0475    0.0000 H       1  UNL1        0.0602
     69 H          19.0613    2.4820    0.0000 H       1  UNL1        0.0236
     70 H          19.9082    2.2552    0.0000 H       1  UNL1        0.0236
     71 H          20.1351    3.1022    0.0000 H       1  UNL1        0.0236
     72 H          18.3138    2.7809    0.0000 H       1  UNL1        0.0236
     73 H          18.8168    2.0627    0.0000 H       1  UNL1        0.0236
     74 H          19.5350    2.5656    0.0000 H       1  UNL1        0.0236
     75 H           2.0000   -6.2562    0.0000 H       1  UNL1        0.2098
     76 H           6.4081   -3.8071    0.0000 H       1  UNL1        0.0618
     77 H          16.7881    4.1950    0.0000 H       1  UNL1        0.0618
     78 H           6.6350   -1.2281    0.0000 H       1  UNL1        0.0278
     79 H           5.7881   -1.0011    0.0000 H       1  UNL1        0.0278
     80 H           5.5611   -1.8481    0.0000 H       1  UNL1        0.0278
     81 H          16.5611    1.6160    0.0000 H       1  UNL1        0.0278
     82 H          17.4081    1.3891    0.0000 H       1  UNL1        0.0278
     83 H          17.6350    2.2360    0.0000 H       1  UNL1        0.0278
     84 H           7.9081   -2.9410    0.0000 H       1  UNL1        0.0620
     85 H          15.2881    3.3290    0.0000 H       1  UNL1        0.0620
     86 H           7.7881   -1.0011    0.0000 H       1  UNL1        0.0618
     87 H          15.4081    1.3891    0.0000 H       1  UNL1        0.0618
     88 H           9.4081   -2.0750    0.0000 H       1  UNL1        0.0620
     89 H          13.7881    2.4630    0.0000 H       1  UNL1        0.0620
     90 H           9.6350    0.5040    0.0000 H       1  UNL1        0.0278
     91 H           8.7881    0.7309    0.0000 H       1  UNL1        0.0278
     92 H           8.5611   -0.1160    0.0000 H       1  UNL1        0.0278
     93 H          10.9081   -1.2090    0.0000 H       1  UNL1        0.0620
     94 H          13.5611   -0.1160    0.0000 H       1  UNL1        0.0278
     95 H          14.4081   -0.3430    0.0000 H       1  UNL1        0.0278
     96 H          14.6350    0.5040    0.0000 H       1  UNL1        0.0278
     97 H          12.2881    1.5969    0.0000 H       1  UNL1        0.0620
     98 H          10.7881    0.7309    0.0000 H       1  UNL1        0.0618
     99 H          12.4081   -0.3430    0.0000 H       1  UNL1        0.0618
@<TRIPOS>BOND
     1     1     4    1
     2     1     5    1
     3     2     6    1
     4     2     7    1
     5    13     3    1
     6     3    75    1
     7     4     5    1
     8     4     8    1
     9     4    17    1
    10     5    10    1
    11     5    16    1
    12     6     7    1
    13     6     9    1
    14     6    21    1
    15     7    12    1
    16     7    18    1
    17     8    11    1
    18     8    19    1
    19     8    20    1
    20     9    14    1
    21     9    22    1
    22     9    23    1
    23    10    13    1
    24    10    44    1
    25    10    45    1
    26    11    13    1
    27    11    46    1
    28    11    47    1
    29    12    15    1
    30    12    48    1
    31    12    49    1
    32    13    50    1
    33    14    15    1
    34    14    51    1
    35    14    52    1
    36    15    53    1
    37    15    54    1
    38    16    55    1
    39    16    56    1
    40    16    57    1
    41    17    24    2
    42    17    58    1
    43    18    59    1
    44    18    60    1
    45    18    61    1
    46    19    64    1
    47    19    65    1
    48    19    66    1
    49    20    62    1
    50    20    63    1
    51    20    67    1
    52    21    25    2
    53    21    68    1
    54    22    69    1
    55    22    70    1
    56    22    71    1
    57    23    72    1
    58    23    73    1
    59    23    74    1
    60    24    26    1
    61    24    76    1
    62    25    27    1
    63    25    77    1
    64    26    28    1
    65    26    30    2
    66    27    29    1
    67    27    31    2
    68    28    78    1
    69    28    79    1
    70    28    80    1
    71    29    81    1
    72    29    82    1
    73    29    83    1
    74    30    32    1
    75    30    84    1
    76    31    33    1
    77    31    85    1
    78    32    34    2
    79    32    86    1
    80    33    35    2
    81    33    87    1
    82    34    36    1
    83    34    88    1
    84    35    37    1
    85    35    89    1
    86    36    38    1
    87    36    39    2
    88    37    40    1
    89    37    41    2
    90    38    90    1
    91    38    91    1
    92    38    92    1
    93    39    42    1
    94    39    93    1
    95    40    94    1
    96    40    95    1
    97    40    96    1
    98    41    43    1
    99    41    97    1
   100    42    43    2
   101    42    98    1
   102    43    99    1
