@<TRIPOS>MOLECULE
IMPHY016232
 33 32 0 0 0
SMALL
GASTEIGER

@<TRIPOS>ATOM
      1 O           7.1962    0.0000    0.0000 O.3     1  UNL1       -0.4613
      2 O           8.0622    1.5000    0.0000 O.2     1  UNL1       -0.2456
      3 C           5.4641    0.0000    0.0000 C.3     1  UNL1       -0.0069
      4 C           4.5981    0.5000    0.0000 C.3     1  UNL1       -0.0471
      5 C           5.4641   -1.0000    0.0000 C.3     1  UNL1       -0.0500
      6 C           3.7320   -0.0000    0.0000 C.3     1  UNL1       -0.0529
      7 C           6.3301    0.5000    0.0000 C.3     1  UNL1        0.0956
      8 C           2.8660    0.5000    0.0000 C.3     1  UNL1       -0.0559
      9 C           4.5981   -1.5000    0.0000 C.3     1  UNL1       -0.0649
     10 C           2.0000   -0.0000    0.0000 C.3     1  UNL1       -0.0653
     11 C           8.0622    0.5000    0.0000 C.2     1  UNL1        0.3314
     12 C           8.9282   -0.0000    0.0000 C.2     1  UNL1        0.0154
     13 C           9.7942    0.5000    0.0000 C.2     1  UNL1       -0.0919
     14 H           5.4641    0.6200    0.0000 H       1  UNL1        0.0333
     15 H           4.9966    0.9749    0.0000 H       1  UNL1        0.0269
     16 H           4.1996    0.9749    0.0000 H       1  UNL1        0.0269
     17 H           5.6762   -1.5826    0.0000 H       1  UNL1        0.0266
     18 H           6.0747   -0.8923    0.0000 H       1  UNL1        0.0266
     19 H           3.3335   -0.4749    0.0000 H       1  UNL1        0.0265
     20 H           4.1306   -0.4749    0.0000 H       1  UNL1        0.0265
     21 H           6.7287    0.9749    0.0000 H       1  UNL1        0.0700
     22 H           5.9316    0.9749    0.0000 H       1  UNL1        0.0700
     23 H           3.2646    0.9749    0.0000 H       1  UNL1        0.0263
     24 H           2.4675    0.9749    0.0000 H       1  UNL1        0.0263
     25 H           4.2881   -0.9631    0.0000 H       1  UNL1        0.0230
     26 H           4.0611   -1.8100    0.0000 H       1  UNL1        0.0230
     27 H           4.9081   -2.0369    0.0000 H       1  UNL1        0.0230
     28 H           1.6900    0.5369    0.0000 H       1  UNL1        0.0230
     29 H           1.4631   -0.3100    0.0000 H       1  UNL1        0.0230
     30 H           2.3100   -0.5369    0.0000 H       1  UNL1        0.0230
     31 H           8.9282   -0.6200    0.0000 H       1  UNL1        0.0683
     32 H          10.3312    0.1900    0.0000 H       1  UNL1        0.0537
     33 H           9.7942    1.1200    0.0000 H       1  UNL1        0.0537
@<TRIPOS>BOND
     1     1     7    1
     2     1    11    1
     3     2    11    2
     4     3     4    1
     5     3     5    1
     6     3     7    1
     7     3    14    1
     8     4     6    1
     9     4    15    1
    10     4    16    1
    11     5     9    1
    12     5    17    1
    13     5    18    1
    14     6     8    1
    15     6    19    1
    16     6    20    1
    17     7    21    1
    18     7    22    1
    19     8    10    1
    20     8    23    1
    21     8    24    1
    22     9    25    1
    23     9    26    1
    24     9    27    1
    25    10    28    1
    26    10    29    1
    27    10    30    1
    28    11    12    1
    29    12    13    2
    30    12    31    1
    31    13    32    1
    32    13    33    1
