@<TRIPOS>MOLECULE
IMPHY006377
 12 12 0 0 0
SMALL
GASTEIGER

@<TRIPOS>ATOM
      1 O           4.8479    1.2007    0.0000 O.2     1  UNL1       -0.5093
      2 O           2.0000   -0.8684    0.0000 O.2     1  UNL1       -0.2707
      3 N           3.7601   -1.1471    0.0000 N.am    1  UNL1       -0.3046
      4 C           4.5691   -0.5593    0.0000 C.3     1  UNL1        0.0694
      5 C           4.2601    0.3917    0.0000 C.2     1  UNL1        0.1160
      6 C           3.2601    0.3917    0.0000 C.2     1  UNL1        0.0389
      7 C           2.9511   -0.5593    0.0000 C.2     1  UNL1        0.2405
      8 H           4.8791   -1.0963    0.0000 H       1  UNL1        0.0542
      9 H           5.1355   -0.3072    0.0000 H       1  UNL1        0.0542
     10 H           3.7601   -1.7671    0.0000 H       1  UNL1        0.1494
     11 H           2.8956    0.8933    0.0000 H       1  UNL1        0.0703
     12 H           4.5957    1.7671    0.0000 H       1  UNL1        0.2917
@<TRIPOS>BOND
     1     1     5    1
     2     1    12    1
     3     2     7    2
     4     3     4    1
     5     3     7   am
     6     3    10    1
     7     4     5    1
     8     4     8    1
     9     4     9    1
    10     5     6    2
    11     6     7    1
    12     6    11    1
