@<TRIPOS>MOLECULE
IMPHY003292
 50 55 0 0 0
SMALL
GASTEIGER

@<TRIPOS>ATOM
      1 O           4.4164   -4.2920    0.0000 O.3     1  UNL1       -0.3505
      2 O           6.1604   -4.4485    0.0000 O.3     1  UNL1       -0.3665
      3 O           2.9905    4.5277    0.0000 O.3     1  UNL1       -0.5067
      4 N           2.9734   -1.1437    0.0000 N.4     1  UNL1        0.2525
      5 N           4.8236    0.9125    0.0000 N.ar    1  UNL1       -0.3533
      6 C           2.1307   -0.5315    0.0000 C.3     1  UNL1       -0.0064
      7 C           4.5971   -2.2744    0.0000 C.3     1  UNL1       -0.0129
      8 C           5.4356   -2.8545    0.0000 C.3     1  UNL1        0.0567
      9 C           3.9217   -0.7127    0.0000 C.3     1  UNL1        0.0228
     10 C           2.9026   -2.1200    0.0000 C.3     1  UNL1       -0.0160
     11 C           3.7059   -2.6795    0.0000 C.3     1  UNL1        0.0290
     12 C           4.7038   -1.3014    0.0000 C.3     1  UNL1        0.0001
     13 C           2.2476    0.5036    0.0000 C.3     1  UNL1        0.0185
     14 C           5.3447   -3.8701    0.0000 C.3     1  UNL1        0.1643
     15 C           4.0146    0.3248    0.0000 C.ar    1  UNL1        0.0690
     16 C           2.0631   -1.5575    0.0000 C.3     1  UNL1       -0.0401
     17 C           3.5915   -3.6927    0.0000 C.3     1  UNL1        0.0588
     18 C           3.2056    0.9125    0.0000 C.ar    1  UNL1       -0.0082
     19 C           2.0000   -2.5505    0.0000 C.3     1  UNL1       -0.0212
     20 C           3.5146    1.8636    0.0000 C.ar    1  UNL1        0.0069
     21 C           4.5146    1.8636    0.0000 C.ar    1  UNL1        0.0473
     22 C           2.9800    2.7575    0.0000 C.ar    1  UNL1       -0.0108
     23 C           5.0493    2.7575    0.0000 C.ar    1  UNL1       -0.0343
     24 C           3.4938    3.6636    0.0000 C.ar    1  UNL1        0.1176
     25 C           4.5354    3.6636    0.0000 C.ar    1  UNL1       -0.0182
     26 H           1.3529   -0.8742    0.0000 H       1  UNL1        0.0860
     27 H           3.9086   -1.7759    0.0000 H       1  UNL1        0.0314
     28 H           6.2067   -2.4968    0.0000 H       1  UNL1        0.0408
     29 H           4.6985   -0.3676    0.0000 H       1  UNL1        0.0919
     30 H           3.6698   -1.7541    0.0000 H       1  UNL1        0.0853
     31 H           2.9315   -3.0300    0.0000 H       1  UNL1        0.0381
     32 H           5.2983   -1.4774    0.0000 H       1  UNL1        0.0327
     33 H           4.9827   -0.7476    0.0000 H       1  UNL1        0.0327
     34 H           2.1054    1.1070    0.0000 H       1  UNL1        0.0369
     35 H           1.6287    0.4667    0.0000 H       1  UNL1        0.0369
     36 H           6.1165   -3.5140    0.0000 H       1  UNL1        0.0912
     37 H           1.8065   -0.9930    0.0000 H       1  UNL1        0.0779
     38 H           1.4986   -1.8140    0.0000 H       1  UNL1        0.0779
     39 H           2.3196   -2.1219    0.0000 H       1  UNL1        0.0779
     40 H           2.9964   -3.5187    0.0000 H       1  UNL1        0.0566
     41 H           3.3183   -4.2492    0.0000 H       1  UNL1        0.0566
     42 H           1.7331   -1.9909    0.0000 H       1  UNL1        0.0284
     43 H           1.4404   -2.8174    0.0000 H       1  UNL1        0.0284
     44 H           2.2669   -3.1101    0.0000 H       1  UNL1        0.0284
     45 H           5.4133    0.7210    0.0000 H       1  UNL1        0.1658
     46 H           6.1028   -5.0658    0.0000 H       1  UNL1        0.2125
     47 H           2.3600    2.7504    0.0000 H       1  UNL1        0.0661
     48 H           5.6692    2.7504    0.0000 H       1  UNL1        0.0639
     49 H           4.8475    4.1993    0.0000 H       1  UNL1        0.0655
     50 H           3.2984    5.0658    0.0000 H       1  UNL1        0.2921
@<TRIPOS>UNITY_ATOM_ATTR
4 1
charge 1
@<TRIPOS>BOND
     1     1    14    1
     2     1    17    1
     3     2    14    1
     4     2    46    1
     5     3    24    1
     6     3    50    1
     7     4     6    1
     8     4     9    1
     9     4    10    1
    10     4    16    1
    11     5    15   ar
    12     5    21   ar
    13     5    45    1
    14     6     8    1
    15     6    13    1
    16     6    26    1
    17     7     8    1
    18     7    11    1
    19     7    12    1
    20     7    27    1
    21     8    14    1
    22     8    28    1
    23     9    12    1
    24     9    15    1
    25     9    29    1
    26    10    11    1
    27    10    19    1
    28    10    30    1
    29    11    17    1
    30    11    31    1
    31    12    32    1
    32    12    33    1
    33    13    18    1
    34    13    34    1
    35    13    35    1
    36    14    36    1
    37    15    18   ar
    38    16    37    1
    39    16    38    1
    40    16    39    1
    41    17    40    1
    42    17    41    1
    43    18    20   ar
    44    19    42    1
    45    19    43    1
    46    19    44    1
    47    20    21   ar
    48    20    22   ar
    49    21    23   ar
    50    22    24   ar
    51    22    47    1
    52    23    25   ar
    53    23    48    1
    54    24    25   ar
    55    25    49    1
