@<TRIPOS>MOLECULE
IMPHY002899
 32 33 0 0 0
SMALL
GASTEIGER

@<TRIPOS>ATOM
      1 O           5.4641    0.2500    0.0000 O.3     1  UNL1       -0.4866
      2 O           8.9282    0.2500    0.0000 O.3     1  UNL1       -0.5059
      3 O           6.3301    1.7500    0.0000 O.2     1  UNL1       -0.2921
      4 C           6.3301   -0.2500    0.0000 C.ar    1  UNL1        0.1350
      5 C           7.1962    0.2500    0.0000 C.ar    1  UNL1        0.1000
      6 C           4.5981   -0.2500    0.0000 C.3     1  UNL1        0.1147
      7 C           3.7320    0.2500    0.0000 C.ar    1  UNL1       -0.0104
      8 C           8.0622   -0.2500    0.0000 C.ar    1  UNL1        0.1308
      9 C           6.3301   -1.2500    0.0000 C.ar    1  UNL1       -0.0190
     10 C           7.1962    1.2500    0.0000 C.2     1  UNL1        0.1671
     11 C           8.0622   -1.2500    0.0000 C.ar    1  UNL1       -0.0192
     12 C           7.1962   -1.7500    0.0000 C.ar    1  UNL1       -0.0548
     13 C           3.7320    1.2500    0.0000 C.ar    1  UNL1       -0.0554
     14 C           2.8660   -0.2500    0.0000 C.ar    1  UNL1       -0.0554
     15 C           2.8660    1.7500    0.0000 C.ar    1  UNL1       -0.0614
     16 C           2.0000    0.2500    0.0000 C.ar    1  UNL1       -0.0614
     17 C           8.0622    1.7500    0.0000 C.3     1  UNL1       -0.0012
     18 C           2.0000    1.2500    0.0000 C.ar    1  UNL1       -0.0617
     19 H           4.1996   -0.7249    0.0000 H       1  UNL1        0.0748
     20 H           4.9966   -0.7249    0.0000 H       1  UNL1        0.0748
     21 H           5.7932   -1.5600    0.0000 H       1  UNL1        0.0654
     22 H           8.5991   -1.5600    0.0000 H       1  UNL1        0.0654
     23 H           7.1962   -2.3700    0.0000 H       1  UNL1        0.0620
     24 H           4.2690    1.5600    0.0000 H       1  UNL1        0.0621
     25 H           2.8660   -0.8700    0.0000 H       1  UNL1        0.0621
     26 H           2.8660    2.3700    0.0000 H       1  UNL1        0.0618
     27 H           1.4631   -0.0600    0.0000 H       1  UNL1        0.0618
     28 H           8.3722    1.2131    0.0000 H       1  UNL1        0.0309
     29 H           8.5991    2.0600    0.0000 H       1  UNL1        0.0309
     30 H           7.7522    2.2869    0.0000 H       1  UNL1        0.0309
     31 H           1.4631    1.5600    0.0000 H       1  UNL1        0.0618
     32 H           9.4651   -0.0600    0.0000 H       1  UNL1        0.2922
@<TRIPOS>BOND
     1     1     4    1
     2     1     6    1
     3     2     8    1
     4     2    32    1
     5     3    10    2
     6     4     5   ar
     7     4     9   ar
     8     5     8   ar
     9     5    10    1
    10     6     7    1
    11     6    19    1
    12     6    20    1
    13     7    13   ar
    14     7    14   ar
    15     8    11   ar
    16     9    12   ar
    17     9    21    1
    18    10    17    1
    19    11    12   ar
    20    11    22    1
    21    12    23    1
    22    13    15   ar
    23    13    24    1
    24    14    16   ar
    25    14    25    1
    26    15    18   ar
    27    15    26    1
    28    16    18   ar
    29    16    27    1
    30    17    28    1
    31    17    29    1
    32    17    30    1
    33    18    31    1
