@<TRIPOS>MOLECULE
IMPHY005887
 58 63 0 0 0
SMALL
GASTEIGER

@<TRIPOS>ATOM
      1 O           6.9088    2.7653    0.0000 O.2     1  UNL1       -0.4544
      2 O           6.0427   -2.7347    0.0000 O.2     1  UNL1       -0.4544
      3 O           9.5068    0.2653    0.0000 O.3     1  UNL1       -0.4523
      4 O           5.1603    5.7999    0.0000 O.3     1  UNL1       -0.5058
      5 O           2.5405   -2.7316    0.0000 O.3     1  UNL1       -0.5058
      6 O           6.9088    5.7653    0.0000 O.2     1  UNL1       -0.2869
      7 O          11.2389    1.2653    0.0000 O.3     1  UNL1       -0.5033
      8 O           3.4446   -1.2347    0.0000 O.2     1  UNL1       -0.2869
      9 O           3.3786    2.7411    0.0000 O.3     1  UNL1       -0.5065
     10 O           4.2986   -5.8040    0.0000 O.3     1  UNL1       -0.5065
     11 C           8.6408    2.7653    0.0000 C.ar    1  UNL1        0.0211
     12 C           7.7748    3.2653    0.0000 C.ar    1  UNL1        0.1393
     13 C           6.0427    4.2653    0.0000 C.ar    1  UNL1        0.1055
     14 C           6.0427    3.2653    0.0000 C.ar    1  UNL1        0.1462
     15 C           6.0427   -1.7347    0.0000 C.ar    1  UNL1        0.1392
     16 C           4.3107   -2.7347    0.0000 C.ar    1  UNL1        0.1055
     17 C           6.9088   -1.2347    0.0000 C.ar    1  UNL1        0.0176
     18 C           5.1767   -3.2347    0.0000 C.ar    1  UNL1        0.1462
     19 C           8.6408    1.7653    0.0000 C.ar    1  UNL1       -0.0050
     20 C           9.5068    1.2653    0.0000 C.ar    1  UNL1        0.1703
     21 C           7.7748    4.2653    0.0000 C.ar    1  UNL1        0.0288
     22 C           6.9088    4.7653    0.0000 C.ar    1  UNL1        0.1966
     23 C           5.1767   -1.2347    0.0000 C.ar    1  UNL1        0.0288
     24 C           4.3107   -1.7347    0.0000 C.ar    1  UNL1        0.1966
     25 C           8.6408   -0.2347    0.0000 C.ar    1  UNL1        0.1287
     26 C           5.1488    4.7999    0.0000 C.ar    1  UNL1        0.1347
     27 C           9.5068    3.2653    0.0000 C.ar    1  UNL1       -0.0474
     28 C           7.7748   -1.7347    0.0000 C.ar    1  UNL1       -0.0476
     29 C           6.9088   -0.2347    0.0000 C.ar    1  UNL1       -0.0476
     30 C           3.4007   -3.2416    0.0000 C.ar    1  UNL1        0.1347
     31 C           5.1488    2.7306    0.0000 C.ar    1  UNL1        0.0231
     32 C          10.3728    1.7653    0.0000 C.ar    1  UNL1        0.1591
     33 C           5.1928   -4.2762    0.0000 C.ar    1  UNL1        0.0231
     34 C           8.6408   -1.2347    0.0000 C.ar    1  UNL1       -0.0187
     35 C           7.7748    0.2653    0.0000 C.ar    1  UNL1       -0.0187
     36 C          10.3728    2.7653    0.0000 C.ar    1  UNL1       -0.0158
     37 C           4.2427    3.2444    0.0000 C.ar    1  UNL1        0.1239
     38 C           4.2427    4.2861    0.0000 C.ar    1  UNL1        0.0223
     39 C           4.2947   -4.8040    0.0000 C.ar    1  UNL1        0.1239
     40 C           3.3926   -4.2832    0.0000 C.ar    1  UNL1        0.0223
     41 H           8.1039    1.4553    0.0000 H       1  UNL1        0.0662
     42 H           8.3117    4.5753    0.0000 H       1  UNL1        0.0693
     43 H           5.1767   -0.6147    0.0000 H       1  UNL1        0.0693
     44 H           9.5068    3.8853    0.0000 H       1  UNL1        0.0626
     45 H           7.7748   -2.3547    0.0000 H       1  UNL1        0.0626
     46 H           6.3718    0.0753    0.0000 H       1  UNL1        0.0626
     47 H           5.1560    2.1106    0.0000 H       1  UNL1        0.0691
     48 H           5.7332   -4.5800    0.0000 H       1  UNL1        0.0691
     49 H           9.1777   -1.5447    0.0000 H       1  UNL1        0.0654
     50 H           7.7748    0.8853    0.0000 H       1  UNL1        0.0654
     51 H          10.9098    3.0753    0.0000 H       1  UNL1        0.0655
     52 H           3.7070    4.5982    0.0000 H       1  UNL1        0.0691
     53 H           2.8545   -4.5911    0.0000 H       1  UNL1        0.0691
     54 H           4.6270    6.1161    0.0000 H       1  UNL1        0.2922
     55 H           2.0000   -3.0354    0.0000 H       1  UNL1        0.2922
     56 H          11.7758    1.5753    0.0000 H       1  UNL1        0.2923
     57 H           2.8405    3.0490    0.0000 H       1  UNL1        0.2921
     58 H           3.7628   -6.1161    0.0000 H       1  UNL1        0.2921
@<TRIPOS>BOND
     1     1    12   ar
     2     1    14   ar
     3     2    15   ar
     4     2    18   ar
     5     3    20    1
     6     3    25    1
     7     4    26    1
     8     4    54    1
     9     5    30    1
    10     5    55    1
    11     6    22    2
    12     7    32    1
    13     7    56    1
    14     8    24    2
    15     9    37    1
    16     9    57    1
    17    10    39    1
    18    10    58    1
    19    11    12    1
    20    11    19   ar
    21    11    27   ar
    22    12    21   ar
    23    13    14   ar
    24    13    22   ar
    25    13    26   ar
    26    14    31   ar
    27    15    17    1
    28    15    23   ar
    29    16    18   ar
    30    16    24   ar
    31    16    30   ar
    32    17    28   ar
    33    17    29   ar
    34    18    33   ar
    35    19    20   ar
    36    19    41    1
    37    20    32   ar
    38    21    22   ar
    39    21    42    1
    40    23    24   ar
    41    23    43    1
    42    25    34   ar
    43    25    35   ar
    44    26    38   ar
    45    27    36   ar
    46    27    44    1
    47    28    34   ar
    48    28    45    1
    49    29    35   ar
    50    29    46    1
    51    30    40   ar
    52    31    37   ar
    53    31    47    1
    54    32    36   ar
    55    33    39   ar
    56    33    48    1
    57    34    49    1
    58    35    50    1
    59    36    51    1
    60    37    38   ar
    61    38    52    1
    62    39    40   ar
    63    40    53    1
