@<TRIPOS>MOLECULE
IMPHY014654
 56 55 0 0 0
SMALL
GASTEIGER

@<TRIPOS>ATOM
      1 O           2.5369   -0.8660    0.0000 O.3     1  UNL1       -0.3889
      2 O          13.7953   -1.3660    0.0000 O.2     1  UNL1       -0.2977
      3 C           6.8671   -0.3660    0.0000 C.3     1  UNL1       -0.0439
      4 C           6.0010    0.1340    0.0000 C.3     1  UNL1       -0.0504
      5 C           5.1350   -0.3660    0.0000 C.3     1  UNL1       -0.0502
      6 C           7.7331    0.1340    0.0000 C.3     1  UNL1       -0.0505
      7 C           4.2690    0.1340    0.0000 C.3     1  UNL1       -0.0243
      8 C           3.4030   -0.3660    0.0000 C.3     1  UNL1        0.0631
      9 C           8.5991   -0.3660    0.0000 C.3     1  UNL1       -0.0528
     10 C           9.4651    0.1340    0.0000 C.3     1  UNL1       -0.0530
     11 C           6.8671   -1.3660    0.0000 C.3     1  UNL1       -0.0624
     12 C           2.9030    0.5000    0.0000 C.3     1  UNL1       -0.0271
     13 C          10.3312   -0.3660    0.0000 C.3     1  UNL1       -0.0530
     14 C           3.9030   -1.2320    0.0000 C.3     1  UNL1       -0.0361
     15 C          11.1972    0.1340    0.0000 C.3     1  UNL1       -0.0527
     16 C           3.4030    1.3660    0.0000 C.3     1  UNL1       -0.0627
     17 C          12.0632   -0.3660    0.0000 C.3     1  UNL1       -0.0464
     18 C          12.9292    0.1340    0.0000 C.3     1  UNL1        0.0055
     19 C          13.7953   -0.3660    0.0000 C.2     1  UNL1        0.1303
     20 C          14.6613    0.1340    0.0000 C.3     1  UNL1       -0.0061
     21 H           6.3301   -0.6760    0.0000 H       1  UNL1        0.0298
     22 H           6.3996    0.6089    0.0000 H       1  UNL1        0.0268
     23 H           5.6025    0.6089    0.0000 H       1  UNL1        0.0268
     24 H           4.7365   -0.8410    0.0000 H       1  UNL1        0.0266
     25 H           5.5335   -0.8410    0.0000 H       1  UNL1        0.0266
     26 H           8.1316    0.6089    0.0000 H       1  UNL1        0.0268
     27 H           7.3346    0.6089    0.0000 H       1  UNL1        0.0268
     28 H           4.6675    0.6089    0.0000 H       1  UNL1        0.0293
     29 H           3.8705    0.6089    0.0000 H       1  UNL1        0.0293
     30 H           8.2006   -0.8410    0.0000 H       1  UNL1        0.0265
     31 H           8.9976   -0.8410    0.0000 H       1  UNL1        0.0265
     32 H           9.8637    0.6089    0.0000 H       1  UNL1        0.0265
     33 H           9.0666    0.6089    0.0000 H       1  UNL1        0.0265
     34 H           6.2471   -1.3660    0.0000 H       1  UNL1        0.0232
     35 H           6.8671   -1.9860    0.0000 H       1  UNL1        0.0232
     36 H           7.4871   -1.3660    0.0000 H       1  UNL1        0.0232
     37 H           2.4280    0.8985    0.0000 H       1  UNL1        0.0290
     38 H           2.4280    0.1015    0.0000 H       1  UNL1        0.0290
     39 H           9.9326   -0.8410    0.0000 H       1  UNL1        0.0265
     40 H          10.7297   -0.8410    0.0000 H       1  UNL1        0.0265
     41 H           3.3660   -1.5420    0.0000 H       1  UNL1        0.0257
     42 H           4.2130   -1.7690    0.0000 H       1  UNL1        0.0257
     43 H           4.4399   -0.9221    0.0000 H       1  UNL1        0.0257
     44 H          11.5957    0.6089    0.0000 H       1  UNL1        0.0265
     45 H          10.7987    0.6089    0.0000 H       1  UNL1        0.0265
     46 H           3.9399    1.0560    0.0000 H       1  UNL1        0.0231
     47 H           3.7130    1.9030    0.0000 H       1  UNL1        0.0231
     48 H           2.8660    1.6760    0.0000 H       1  UNL1        0.0231
     49 H           2.0000   -0.5560    0.0000 H       1  UNL1        0.2101
     50 H          11.6647   -0.8410    0.0000 H       1  UNL1        0.0269
     51 H          12.4617   -0.8410    0.0000 H       1  UNL1        0.0269
     52 H          13.3278    0.6089    0.0000 H       1  UNL1        0.0341
     53 H          12.5307    0.6089    0.0000 H       1  UNL1        0.0341
     54 H          14.9713   -0.4030    0.0000 H       1  UNL1        0.0306
     55 H          15.1982    0.4440    0.0000 H       1  UNL1        0.0306
     56 H          14.3513    0.6709    0.0000 H       1  UNL1        0.0306
@<TRIPOS>BOND
     1     1     8    1
     2     1    49    1
     3     2    19    2
     4     3     4    1
     5     3     6    1
     6     3    11    1
     7     3    21    1
     8     4     5    1
     9     4    22    1
    10     4    23    1
    11     5     7    1
    12     5    24    1
    13     5    25    1
    14     6     9    1
    15     6    26    1
    16     6    27    1
    17     7     8    1
    18     7    28    1
    19     7    29    1
    20     8    12    1
    21     8    14    1
    22     9    10    1
    23     9    30    1
    24     9    31    1
    25    10    13    1
    26    10    32    1
    27    10    33    1
    28    11    34    1
    29    11    35    1
    30    11    36    1
    31    12    16    1
    32    12    37    1
    33    12    38    1
    34    13    15    1
    35    13    39    1
    36    13    40    1
    37    14    41    1
    38    14    42    1
    39    14    43    1
    40    15    17    1
    41    15    44    1
    42    15    45    1
    43    16    46    1
    44    16    47    1
    45    16    48    1
    46    17    18    1
    47    17    50    1
    48    17    51    1
    49    18    19    1
    50    18    52    1
    51    18    53    1
    52    19    20    1
    53    20    54    1
    54    20    55    1
    55    20    56    1
