@<TRIPOS>MOLECULE
IMPHY005820
 33 35 0 0 0
SMALL
GASTEIGER

@<TRIPOS>ATOM
      1 O           6.0682   -2.0427    0.0000 O.3     1  UNL1       -0.4910
      2 O           6.9343    1.4573    0.0000 O.3     1  UNL1       -0.5064
      3 O           2.5381   -2.0668    0.0000 O.3     1  UNL1       -0.5066
      4 O          10.3984    1.4573    0.0000 O.3     1  UNL1       -0.5066
      5 C           6.9343   -0.5427    0.0000 C.3     1  UNL1        0.0258
      6 C           6.0682   -0.0427    0.0000 C.3     1  UNL1       -0.0142
      7 C           6.9343   -1.5427    0.0000 C.3     1  UNL1        0.0968
      8 C           5.2022   -0.5427    0.0000 C.ar    1  UNL1       -0.0048
      9 C           7.8003   -0.0427    0.0000 C.ar    1  UNL1        0.0009
     10 C           5.2022   -1.5427    0.0000 C.ar    1  UNL1        0.1272
     11 C           4.3083   -0.0080    0.0000 C.ar    1  UNL1       -0.0516
     12 C           7.8003    0.9573    0.0000 C.ar    1  UNL1        0.1239
     13 C           8.6663   -0.5427    0.0000 C.ar    1  UNL1       -0.0513
     14 C           4.3083   -2.0773    0.0000 C.ar    1  UNL1        0.0218
     15 C           3.4022   -0.5219    0.0000 C.ar    1  UNL1       -0.0197
     16 C           3.4022   -1.5635    0.0000 C.ar    1  UNL1        0.1203
     17 C           8.6663    1.4573    0.0000 C.ar    1  UNL1        0.0216
     18 C           9.5323   -0.0427    0.0000 C.ar    1  UNL1       -0.0197
     19 C           9.5323    0.9573    0.0000 C.ar    1  UNL1        0.1203
     20 H           6.9343    0.0773    0.0000 H       1  UNL1        0.0386
     21 H           6.4668    0.4323    0.0000 H       1  UNL1        0.0321
     22 H           5.6697    0.4323    0.0000 H       1  UNL1        0.0321
     23 H           7.1463   -2.1253    0.0000 H       1  UNL1        0.0703
     24 H           7.5449   -1.4350    0.0000 H       1  UNL1        0.0703
     25 H           4.3154    0.6120    0.0000 H       1  UNL1        0.0623
     26 H           8.6663   -1.1627    0.0000 H       1  UNL1        0.0623
     27 H           4.3154   -2.6973    0.0000 H       1  UNL1        0.0691
     28 H           2.8665   -0.2098    0.0000 H       1  UNL1        0.0654
     29 H           8.6663    2.0773    0.0000 H       1  UNL1        0.0691
     30 H          10.0693   -0.3527    0.0000 H       1  UNL1        0.0654
     31 H           6.9343    2.0773    0.0000 H       1  UNL1        0.2921
     32 H           2.0000   -1.7589    0.0000 H       1  UNL1        0.2921
     33 H          10.9353    1.1473    0.0000 H       1  UNL1        0.2921
@<TRIPOS>BOND
     1     1     7    1
     2     1    10    1
     3     2    12    1
     4     2    31    1
     5     3    16    1
     6     3    32    1
     7     4    19    1
     8     4    33    1
     9     5     6    1
    10     5     7    1
    11     5     9    1
    12     5    20    1
    13     6     8    1
    14     6    21    1
    15     6    22    1
    16     7    23    1
    17     7    24    1
    18     8    10   ar
    19     8    11   ar
    20     9    12   ar
    21     9    13   ar
    22    10    14   ar
    23    11    15   ar
    24    11    25    1
    25    12    17   ar
    26    13    18   ar
    27    13    26    1
    28    14    16   ar
    29    14    27    1
    30    15    16   ar
    31    15    28    1
    32    17    19   ar
    33    17    29    1
    34    18    19   ar
    35    18    30    1
