@<TRIPOS>MOLECULE
IMPHY012308
 13 12 0 0 0
SMALL
GASTEIGER

@<TRIPOS>ATOM
      1 O           2.0000    0.7500    0.0000 O.co2   1  UNL1       -0.5498
      2 O           2.8660   -0.7500    0.0000 O.co2   1  UNL1       -0.5498
      3 C           4.5981    0.2500    0.0000 C.3     1  UNL1       -0.0508
      4 C           3.7320    0.7500    0.0000 C.3     1  UNL1       -0.0135
      5 C           5.4641    0.7500    0.0000 C.3     1  UNL1       -0.0649
      6 C           2.8660    0.2500    0.0000 C.2     1  UNL1        0.0417
      7 H           4.1996   -0.2249    0.0000 H       1  UNL1        0.0266
      8 H           4.9966   -0.2249    0.0000 H       1  UNL1        0.0266
      9 H           4.1306    1.2250    0.0000 H       1  UNL1        0.0325
     10 H           3.3335    1.2250    0.0000 H       1  UNL1        0.0325
     11 H           5.7741    0.2131    0.0000 H       1  UNL1        0.0230
     12 H           6.0010    1.0600    0.0000 H       1  UNL1        0.0230
     13 H           5.1541    1.2869    0.0000 H       1  UNL1        0.0230
@<TRIPOS>UNITY_ATOM_ATTR
1 1
charge -1
@<TRIPOS>BOND
     1     1     6   ar
     2     2     6   ar
     3     3     4    1
     4     3     5    1
     5     3     7    1
     6     3     8    1
     7     4     6    1
     8     4     9    1
     9     4    10    1
    10     5    11    1
    11     5    12    1
    12     5    13    1
