@<TRIPOS>MOLECULE
IMPHY005645
 71 75 0 0 0
SMALL
GASTEIGER

@<TRIPOS>ATOM
      1 O           5.1350   -4.2785    0.0000 O.3     1  UNL1       -0.3313
      2 O           9.5102    4.2806    0.0000 O.3     1  UNL1       -0.3313
      3 O           6.8671   -4.2785    0.0000 O.3     1  UNL1       -0.4607
      4 O           3.4030   -6.2785    0.0000 O.3     1  UNL1       -0.3865
      5 O           5.1350   -7.2785    0.0000 O.3     1  UNL1       -0.3864
      6 O          11.2500    6.2739    0.0000 O.3     1  UNL1       -0.3865
      7 O           9.5218    7.2806    0.0000 O.3     1  UNL1       -0.3864
      8 O           7.7782    4.2873    0.0000 O.3     1  UNL1       -0.4608
      9 O           6.8671   -6.2785    0.0000 O.3     1  UNL1       -0.3829
     10 O           7.7859    6.2873    0.0000 O.3     1  UNL1       -0.3829
     11 O           2.5369   -4.7785    0.0000 O.3     1  UNL1       -0.3924
     12 O          12.1102    4.7706    0.0000 O.3     1  UNL1       -0.3924
     13 O           8.6230   -1.2160    0.0000 O.2     1  UNL1       -0.4620
     14 O           6.0308    0.2940    0.0000 O.2     1  UNL1       -0.2864
     15 C           4.2690   -5.7785    0.0000 C.3     1  UNL1        0.1120
     16 C           5.1350   -6.2785    0.0000 C.3     1  UNL1        0.1152
     17 C          10.3820    5.7773    0.0000 C.3     1  UNL1        0.1120
     18 C           9.5180    6.2806    0.0000 C.3     1  UNL1        0.1152
     19 C           4.2690   -4.7785    0.0000 C.3     1  UNL1        0.1140
     20 C           6.0010   -5.7785    0.0000 C.3     1  UNL1        0.1454
     21 C          10.3782    4.7773    0.0000 C.3     1  UNL1        0.1140
     22 C           8.6500    5.7839    0.0000 C.3     1  UNL1        0.1454
     23 C           6.0010   -4.7785    0.0000 C.3     1  UNL1        0.2308
     24 C           8.6462    4.7840    0.0000 C.3     1  UNL1        0.2308
     25 C           3.4030   -4.2785    0.0000 C.3     1  UNL1        0.0731
     26 C          11.2423    4.2739    0.0000 C.3     1  UNL1        0.0731
     27 C           6.8671   -3.2785    0.0000 C.ar    1  UNL1        0.1275
     28 C           7.7744    3.2873    0.0000 C.ar    1  UNL1        0.1240
     29 C           7.7671   -2.7542    0.0000 C.ar    1  UNL1        0.0232
     30 C           5.9670   -2.7542    0.0000 C.ar    1  UNL1       -0.0189
     31 C           6.9064    2.7906    0.0000 C.ar    1  UNL1       -0.0192
     32 C           8.6384    2.7840    0.0000 C.ar    1  UNL1       -0.0192
     33 C           7.7551   -1.7127    0.0000 C.ar    1  UNL1        0.1419
     34 C           6.8910   -1.2093    0.0000 C.ar    1  UNL1        0.0648
     35 C           7.7666    1.2873    0.0000 C.ar    1  UNL1       -0.0110
     36 C           5.9790   -1.7127    0.0000 C.ar    1  UNL1       -0.0439
     37 C           7.7628    0.2873    0.0000 C.ar    1  UNL1        0.0643
     38 C           6.9026    1.7906    0.0000 C.ar    1  UNL1       -0.0504
     39 C           8.6346    1.7840    0.0000 C.ar    1  UNL1       -0.0504
     40 C           6.8948   -0.2093    0.0000 C.ar    1  UNL1        0.2001
     41 C           8.6269   -0.2160    0.0000 C.ar    1  UNL1        0.1038
     42 H           4.2690   -6.3985    0.0000 H       1  UNL1        0.0647
     43 H           4.5981   -6.5885    0.0000 H       1  UNL1        0.0648
     44 H          10.9178    5.4652    0.0000 H       1  UNL1        0.0647
     45 H           8.9822    6.5927    0.0000 H       1  UNL1        0.0648
     46 H           4.2690   -4.1585    0.0000 H       1  UNL1        0.0647
     47 H           6.0010   -6.3985    0.0000 H       1  UNL1        0.0683
     48 H          10.3758    4.1573    0.0000 H       1  UNL1        0.0647
     49 H           8.1119    5.4760    0.0000 H       1  UNL1        0.0683
     50 H           6.0010   -4.1585    0.0000 H       1  UNL1        0.1084
     51 H           8.6438    4.1640    0.0000 H       1  UNL1        0.1084
     52 H           3.8015   -3.8036    0.0000 H       1  UNL1        0.0584
     53 H           3.0044   -3.8036    0.0000 H       1  UNL1        0.0584
     54 H          10.8419    3.8005    0.0000 H       1  UNL1        0.0584
     55 H          11.6390    3.7975    0.0000 H       1  UNL1        0.0584
     56 H           3.4030   -6.8985    0.0000 H       1  UNL1        0.2100
     57 H           4.5981   -7.5885    0.0000 H       1  UNL1        0.2100
     58 H          11.2524    6.8939    0.0000 H       1  UNL1        0.2100
     59 H          10.0599    7.5885    0.0000 H       1  UNL1        0.2100
     60 H           6.8671   -6.8985    0.0000 H       1  UNL1        0.2102
     61 H           7.7883    6.9073    0.0000 H       1  UNL1        0.2102
     62 H           2.0000   -4.4685    0.0000 H       1  UNL1        0.2095
     63 H          12.6460    4.4585    0.0000 H       1  UNL1        0.2095
     64 H           8.3064   -3.0601    0.0000 H       1  UNL1        0.0691
     65 H           5.4277   -3.0601    0.0000 H       1  UNL1        0.0654
     66 H           6.3707    3.1027    0.0000 H       1  UNL1        0.0654
     67 H           9.1766    3.0919    0.0000 H       1  UNL1        0.0654
     68 H           5.4470   -1.3944    0.0000 H       1  UNL1        0.0627
     69 H           6.3644    1.4827    0.0000 H       1  UNL1        0.0625
     70 H           9.1703    1.4719    0.0000 H       1  UNL1        0.0625
     71 H           9.1650    0.0919    0.0000 H       1  UNL1        0.1037
@<TRIPOS>BOND
     1     1    19    1
     2     1    23    1
     3     2    21    1
     4     2    24    1
     5    23     3    1
     6     3    27    1
     7    15     4    1
     8     4    56    1
     9    16     5    1
    10     5    57    1
    11    17     6    1
    12     6    58    1
    13    18     7    1
    14     7    59    1
    15    24     8    1
    16     8    28    1
    17    20     9    1
    18     9    60    1
    19    22    10    1
    20    10    61    1
    21    11    25    1
    22    11    62    1
    23    12    26    1
    24    12    63    1
    25    13    33   ar
    26    13    41   ar
    27    14    40    2
    28    15    16    1
    29    15    19    1
    30    15    42    1
    31    16    20    1
    32    16    43    1
    33    17    18    1
    34    17    21    1
    35    17    44    1
    36    18    22    1
    37    18    45    1
    38    19    25    1
    39    19    46    1
    40    20    23    1
    41    20    47    1
    42    21    26    1
    43    21    48    1
    44    22    24    1
    45    22    49    1
    46    23    50    1
    47    24    51    1
    48    25    52    1
    49    25    53    1
    50    26    54    1
    51    26    55    1
    52    27    29   ar
    53    27    30   ar
    54    28    31   ar
    55    28    32   ar
    56    29    33   ar
    57    29    64    1
    58    30    36   ar
    59    30    65    1
    60    31    38   ar
    61    31    66    1
    62    32    39   ar
    63    32    67    1
    64    33    34   ar
    65    34    36   ar
    66    34    40   ar
    67    35    37    1
    68    35    38   ar
    69    35    39   ar
    70    36    68    1
    71    37    40   ar
    72    37    41   ar
    73    38    69    1
    74    39    70    1
    75    41    71    1
