@<TRIPOS>MOLECULE
IMPHY006769
 47 49 0 0 0
SMALL
GASTEIGER

@<TRIPOS>ATOM
      1 O           2.2788   -0.0920    0.0000 O.2     1  UNL1       -0.4770
      2 O           4.8479   -0.4010    0.0000 O.2     1  UNL1       -0.2876
      3 O           6.8648    0.3182    0.0000 O.2     1  UNL1       -0.2876
      4 C           3.0878   -0.6798    0.0000 C.3     1  UNL1        0.1967
      5 C           2.2788   -1.2676    0.0000 C.3     1  UNL1        0.0048
      6 C           2.5878   -2.2186    0.0000 C.3     1  UNL1       -0.0207
      7 C           3.8968   -1.2676    0.0000 C.2     1  UNL1        0.0000
      8 C           3.8968   -0.0920    0.0000 C.2     1  UNL1        0.2098
      9 C           3.5878   -2.2186    0.0000 C.2     1  UNL1       -0.0736
     10 C           2.5878    0.8590    0.0000 C.2     1  UNL1        0.1068
     11 C           3.5878    0.8590    0.0000 C.2     1  UNL1        0.0338
     12 C           3.1061    1.6542    0.0000 C.3     1  UNL1        0.0139
     13 C           3.9734    2.0396    0.0000 C.3     1  UNL1       -0.0097
     14 C           2.0000   -3.0277    0.0000 C.3     1  UNL1       -0.0588
     15 C           4.8401   -1.1630    0.0000 C.2     1  UNL1       -0.0481
     16 C           4.5013    1.2658    0.0000 C.3     1  UNL1       -0.0331
     17 C           4.1276    3.0277    0.0000 C.3     1  UNL1       -0.0559
     18 C           3.1658    2.6294    0.0000 C.3     1  UNL1       -0.0559
     19 C           4.9108    1.8915    0.0000 C.2     1  UNL1       -0.0743
     20 C           5.5750   -0.5623    0.0000 C.2     1  UNL1       -0.0034
     21 C           5.6171    1.2575    0.0000 C.2     1  UNL1       -0.0181
     22 C           5.8650    0.3413    0.0000 C.2     1  UNL1        0.1816
     23 C           6.4014   -1.1254    0.0000 C.3     1  UNL1       -0.0361
     24 H           1.9688   -0.7307    0.0000 H       1  UNL1        0.0317
     25 H           1.7124   -1.5198    0.0000 H       1  UNL1        0.0317
     26 H           1.9754   -2.1217    0.0000 H       1  UNL1        0.0342
     27 H           3.9522   -2.7202    0.0000 H       1  UNL1        0.0579
     28 H           3.0526    2.2718    0.0000 H       1  UNL1        0.0352
     29 H           3.5082    1.1822    0.0000 H       1  UNL1        0.0352
     30 H           1.4984   -2.6632    0.0000 H       1  UNL1        0.0235
     31 H           1.6356   -3.5292    0.0000 H       1  UNL1        0.0235
     32 H           2.5016   -3.3921    0.0000 H       1  UNL1        0.0235
     33 H           5.0803   -1.7346    0.0000 H       1  UNL1        0.0625
     34 H           4.7535    0.6994    0.0000 H       1  UNL1        0.0280
     35 H           5.0677    1.5180    0.0000 H       1  UNL1        0.0280
     36 H           4.2492    1.8322    0.0000 H       1  UNL1        0.0280
     37 H           4.7401    2.9321    0.0000 H       1  UNL1        0.0238
     38 H           4.2232    3.6402    0.0000 H       1  UNL1        0.0238
     39 H           3.5150    3.1233    0.0000 H       1  UNL1        0.0238
     40 H           3.5315    3.1301    0.0000 H       1  UNL1        0.0238
     41 H           2.6651    2.9951    0.0000 H       1  UNL1        0.0238
     42 H           2.8001    2.1288    0.0000 H       1  UNL1        0.0238
     43 H           5.1772    2.4514    0.0000 H       1  UNL1        0.0579
     44 H           6.1451    1.5825    0.0000 H       1  UNL1        0.0653
     45 H           6.0523   -1.6378    0.0000 H       1  UNL1        0.0279
     46 H           6.9138   -1.4744    0.0000 H       1  UNL1        0.0279
     47 H           6.7505   -0.6130    0.0000 H       1  UNL1        0.0279
@<TRIPOS>BOND
     1     1     4    1
     2     1    10    1
     3     2     8    2
     4     3    22    2
     5     4     5    1
     6     4     7    1
     7     4     8    1
     8     5     6    1
     9     5    24    1
    10     5    25    1
    11     6     9    1
    12     6    14    1
    13     6    26    1
    14     7     9    2
    15     7    15    1
    16     8    11    1
    17     9    27    1
    18    10    11    2
    19    10    12    1
    20    11    16    1
    21    12    13    1
    22    12    28    1
    23    12    29    1
    24    13    17    1
    25    13    18    1
    26    13    19    1
    27    14    30    1
    28    14    31    1
    29    14    32    1
    30    15    20    2
    31    15    33    1
    32    16    34    1
    33    16    35    1
    34    16    36    1
    35    17    37    1
    36    17    38    1
    37    17    39    1
    38    18    40    1
    39    18    41    1
    40    18    42    1
    41    19    21    2
    42    19    43    1
    43    20    22    1
    44    20    23    1
    45    21    22    1
    46    21    44    1
    47    23    45    1
    48    23    46    1
    49    23    47    1
