@<TRIPOS>MOLECULE
IMPHY004764
 48 51 0 0 0
SMALL
GASTEIGER

@<TRIPOS>ATOM
      1 O           5.1350   -0.3879    0.0000 O.3     1  UNL1       -0.3369
      2 O           6.0010    1.1121    0.0000 O.3     1  UNL1       -0.4535
      3 O           2.5369    1.1121    0.0000 O.3     1  UNL1       -0.3864
      4 O           4.2690    2.1121    0.0000 O.3     1  UNL1       -0.3829
      5 O           2.5369   -0.8879    0.0000 O.3     1  UNL1       -0.3869
      6 O           9.4931   -0.9226    0.0000 O.2     1  UNL1       -0.4544
      7 O           7.7331    2.1121    0.0000 O.3     1  UNL1       -0.5027
      8 O           6.0010   -0.8879    0.0000 O.3     1  UNL1       -0.5031
      9 O           9.4815    2.1467    0.0000 O.2     1  UNL1       -0.2869
     10 O          13.8555   -2.4221    0.0000 O.3     1  UNL1       -0.5068
     11 C           3.4030    0.6121    0.0000 C.3     1  UNL1        0.1148
     12 C           4.2690    1.1121    0.0000 C.3     1  UNL1        0.1454
     13 C           3.4030   -0.3879    0.0000 C.3     1  UNL1        0.1070
     14 C           5.1350    0.6121    0.0000 C.3     1  UNL1        0.2308
     15 C           4.2690   -0.8879    0.0000 C.3     1  UNL1        0.0802
     16 C           6.8671    0.6121    0.0000 C.ar    1  UNL1        0.2072
     17 C           7.7331    1.1121    0.0000 C.ar    1  UNL1        0.1769
     18 C           8.5991    0.6121    0.0000 C.ar    1  UNL1        0.1091
     19 C           6.8671   -0.3879    0.0000 C.ar    1  UNL1        0.1658
     20 C           8.5991   -0.3879    0.0000 C.ar    1  UNL1        0.1465
     21 C           7.7331   -0.8879    0.0000 C.ar    1  UNL1        0.0268
     22 C           9.4931    1.1467    0.0000 C.ar    1  UNL1        0.1967
     23 C          10.3991   -0.4087    0.0000 C.ar    1  UNL1        0.1392
     24 C          10.3991    0.6329    0.0000 C.ar    1  UNL1        0.0288
     25 C          11.2632   -0.9121    0.0000 C.ar    1  UNL1        0.0176
     26 C          11.2594   -1.9121    0.0000 C.ar    1  UNL1       -0.0476
     27 C          12.1312   -0.4154    0.0000 C.ar    1  UNL1       -0.0476
     28 C          12.1235   -2.4154    0.0000 C.ar    1  UNL1       -0.0195
     29 C          12.9953   -0.9188    0.0000 C.ar    1  UNL1       -0.0195
     30 C          12.9914   -1.9187    0.0000 C.ar    1  UNL1        0.1169
     31 H           2.8660    0.3021    0.0000 H       1  UNL1        0.0648
     32 H           4.8059    1.4221    0.0000 H       1  UNL1        0.0683
     33 H           3.4030   -1.0079    0.0000 H       1  UNL1        0.0643
     34 H           5.6720    0.3021    0.0000 H       1  UNL1        0.1084
     35 H           3.8705   -1.3629    0.0000 H       1  UNL1        0.0588
     36 H           4.6675   -1.3629    0.0000 H       1  UNL1        0.0588
     37 H           2.0000    0.8021    0.0000 H       1  UNL1        0.2100
     38 H           3.7320    2.4221    0.0000 H       1  UNL1        0.2102
     39 H           2.5369   -1.5079    0.0000 H       1  UNL1        0.2100
     40 H           7.7331   -1.5079    0.0000 H       1  UNL1        0.0692
     41 H          10.9349    0.9450    0.0000 H       1  UNL1        0.0693
     42 H           7.1962    2.4221    0.0000 H       1  UNL1        0.2923
     43 H           6.0010   -1.5079    0.0000 H       1  UNL1        0.2923
     44 H          10.7212   -2.2200    0.0000 H       1  UNL1        0.0626
     45 H          12.1336    0.2046    0.0000 H       1  UNL1        0.0626
     46 H          12.1211   -3.0354    0.0000 H       1  UNL1        0.0654
     47 H          13.5334   -0.6108    0.0000 H       1  UNL1        0.0654
     48 H          14.3936   -2.1142    0.0000 H       1  UNL1        0.2921
@<TRIPOS>BOND
     1     1    14    1
     2     1    15    1
     3    14     2    1
     4     2    16    1
     5    11     3    1
     6     3    37    1
     7     4    12    1
     8     4    38    1
     9    13     5    1
    10     5    39    1
    11     6    20   ar
    12     6    23   ar
    13     7    17    1
    14     7    42    1
    15     8    19    1
    16     8    43    1
    17     9    22    2
    18    10    30    1
    19    10    48    1
    20    11    12    1
    21    11    13    1
    22    11    31    1
    23    12    14    1
    24    12    32    1
    25    13    15    1
    26    13    33    1
    27    14    34    1
    28    15    35    1
    29    15    36    1
    30    16    17   ar
    31    16    19   ar
    32    17    18   ar
    33    18    20   ar
    34    18    22   ar
    35    19    21   ar
    36    20    21   ar
    37    21    40    1
    38    22    24   ar
    39    23    24   ar
    40    23    25    1
    41    24    41    1
    42    25    26   ar
    43    25    27   ar
    44    26    28   ar
    45    26    44    1
    46    27    29   ar
    47    27    45    1
    48    28    30   ar
    49    28    46    1
    50    29    30   ar
    51    29    47    1
