@<TRIPOS>MOLECULE
IMPHY002548
 28 30 0 0 0
SMALL
GASTEIGER

@<TRIPOS>ATOM
      1 O           7.6255    1.2750    0.0000 O.3     1  UNL1       -0.4793
      2 OXT         5.9721    1.7911    0.0000 O.2     1  UNL1       -0.2488
      3 N           7.0547   -0.6675    0.0000 N.3     1  UNL1       -0.2990
      4 N           4.5274    0.4568    0.0000 N.ar    1  UNL1       -0.3560
      5 C           5.0274   -1.0821    0.0000 C.ar    1  UNL1       -0.0158
      6 C           5.3364   -0.1310    0.0000 C.ar    1  UNL1        0.0485
      7 CA          6.3518    0.1012    0.0000 C.3     1  UNL1        0.1464
      8 C           5.7123   -1.8668    0.0000 C.3     1  UNL1       -0.0128
      9 C           6.7328   -1.6581    0.0000 C.3     1  UNL1        0.0010
     10 C           4.0274   -1.0821    0.0000 C.ar    1  UNL1        0.0032
     11 C           3.7183   -0.1310    0.0000 C.ar    1  UNL1        0.0470
     12 C           3.3424   -1.8668    0.0000 C.ar    1  UNL1       -0.0523
     13 C           6.6498    1.0558    0.0000 C.2     1  UNL1        0.3279
     14 C           2.7029    0.1012    0.0000 C.ar    1  UNL1       -0.0378
     15 C           2.3219   -1.6581    0.0000 C.ar    1  UNL1       -0.0611
     16 C           2.0000   -0.6675    0.0000 C.ar    1  UNL1       -0.0598
     17 HA          6.9570    0.2360    0.0000 H       1  UNL1        0.0642
     18 H           5.1824   -2.1886    0.0000 H       1  UNL1        0.0326
     19 H           5.9387   -2.4440    0.0000 H       1  UNL1        0.0326
     20 H           6.7513   -2.2778    0.0000 H       1  UNL1        0.0427
     21 H           7.3466   -1.7460    0.0000 H       1  UNL1        0.0427
     22 H           7.6607   -0.5362    0.0000 H       1  UNL1        0.1230
     23 H           4.5274    1.0768    0.0000 H       1  UNL1        0.1657
     24 H           3.5408   -2.4542    0.0000 H       1  UNL1        0.0624
     25 H           2.5182    0.6931    0.0000 H       1  UNL1        0.0638
     26 H           1.9088   -2.1205    0.0000 H       1  UNL1        0.0618
     27 H           1.3940   -0.5362    0.0000 H       1  UNL1        0.0618
     28 H           7.8102    1.8668    0.0000 H       1  UNL1        0.2951
@<TRIPOS>BOND
     1     1    13    1
     2     1    28    1
     3     2    13    2
     4     3     7    1
     5     3     9    1
     6     3    22    1
     7     4     6   ar
     8     4    11   ar
     9     4    23    1
    10     5     6   ar
    11     5     8    1
    12     5    10   ar
    13     6     7    1
    14     7    13    1
    15     7    17    1
    16     8     9    1
    17     8    18    1
    18     8    19    1
    19     9    20    1
    20     9    21    1
    21    10    11   ar
    22    10    12   ar
    23    11    14   ar
    24    12    15   ar
    25    12    24    1
    26    14    16   ar
    27    14    25    1
    28    15    16   ar
    29    15    26    1
    30    16    27    1
