@<TRIPOS>MOLECULE
IMPHY012540
 44 48 0 0 0
SMALL
GASTEIGER

@<TRIPOS>ATOM
      1 O          10.0051    1.5506    0.0000 O.3     1  UNL1       -0.3808
      2 O          10.8248   -2.1927    0.0000 O.3     1  UNL1       -0.4526
      3 O           9.3729   -3.0309    0.0000 O.3     1  UNL1       -0.4526
      4 O           4.6874    2.6283    0.0000 O.3     1  UNL1       -0.4907
      5 O           2.8680    1.5964    0.0000 O.3     1  UNL1       -0.4914
      6 N           7.4070    1.0506    0.0000 N.ar    1  UNL1       -0.1935
      7 C           9.1390    1.0506    0.0000 C.3     1  UNL1        0.1400
      8 C           8.2730    1.5506    0.0000 C.3     1  UNL1        0.1808
      9 C           9.1390    0.0506    0.0000 C.ar    1  UNL1        0.0040
     10 C           7.4070    0.0506    0.0000 C.ar    1  UNL1        0.2160
     11 C           8.2730   -0.4494    0.0000 C.ar    1  UNL1        0.0557
     12 C           6.5130    1.5853    0.0000 C.ar    1  UNL1        0.1832
     13 C           6.5130   -0.4840    0.0000 C.ar    1  UNL1        0.0183
     14 C           5.6070    1.0714    0.0000 C.ar    1  UNL1        0.0909
     15 C           5.6070    0.0298    0.0000 C.ar    1  UNL1       -0.0022
     16 C          10.0490   -0.4562    0.0000 C.ar    1  UNL1       -0.0095
     17 C           8.2570   -1.4909    0.0000 C.ar    1  UNL1       -0.0024
     18 C          10.0571   -1.4978    0.0000 C.ar    1  UNL1        0.1666
     19 C           9.1550   -2.0186    0.0000 C.ar    1  UNL1        0.1670
     20 C           4.6758    1.6284    0.0000 C.ar    1  UNL1        0.1748
     21 C           4.6758   -0.5271    0.0000 C.ar    1  UNL1       -0.0499
     22 C           3.7320    1.0931    0.0000 C.ar    1  UNL1        0.1623
     23 C          10.4028   -3.1383    0.0000 C.3     1  UNL1        0.2332
     24 C           3.7320    0.0081    0.0000 C.ar    1  UNL1       -0.0157
     25 C           3.8272    3.1383    0.0000 C.3     1  UNL1        0.0790
     26 C           2.0000    1.0998    0.0000 C.3     1  UNL1        0.0790
     27 H           9.1390    1.6706    0.0000 H       1  UNL1        0.0708
     28 H           8.6716    2.0256    0.0000 H       1  UNL1        0.1061
     29 H           7.8745    2.0256    0.0000 H       1  UNL1        0.1061
     30 H           6.5202    2.2052    0.0000 H       1  UNL1        0.1384
     31 H           6.5202   -1.1040    0.0000 H       1  UNL1        0.0690
     32 H          10.5824   -0.1400    0.0000 H       1  UNL1        0.0659
     33 H           7.7165   -1.7947    0.0000 H       1  UNL1        0.0663
     34 H          10.0051    2.1706    0.0000 H       1  UNL1        0.2105
     35 H           4.6830   -1.1471    0.0000 H       1  UNL1        0.0625
     36 H          10.2741   -3.7448    0.0000 H       1  UNL1        0.1166
     37 H          10.9924   -3.3300    0.0000 H       1  UNL1        0.1166
     38 H           3.1963   -0.3039    0.0000 H       1  UNL1        0.0655
     39 H           4.1434    3.6716    0.0000 H       1  UNL1        0.0660
     40 H           3.2939    3.4544    0.0000 H       1  UNL1        0.0660
     41 H           3.5110    2.6050    0.0000 H       1  UNL1        0.0660
     42 H           1.6921    1.6379    0.0000 H       1  UNL1        0.0660
     43 H           1.4619    0.7919    0.0000 H       1  UNL1        0.0660
     44 H           2.3079    0.5617    0.0000 H       1  UNL1        0.0660
@<TRIPOS>UNITY_ATOM_ATTR
6 1
charge 1
@<TRIPOS>BOND
     1     1     7    1
     2     1    34    1
     3     2    18    1
     4     2    23    1
     5     3    19    1
     6     3    23    1
     7     4    20    1
     8     4    25    1
     9     5    22    1
    10     5    26    1
    11     6     8    1
    12     6    10   ar
    13     6    12   ar
    14     7     8    1
    15     7     9    1
    16     7    27    1
    17     8    28    1
    18     8    29    1
    19     9    11   ar
    20     9    16   ar
    21    10    11    1
    22    10    13   ar
    23    11    17   ar
    24    12    14   ar
    25    12    30    1
    26    13    15   ar
    27    13    31    1
    28    14    15   ar
    29    14    20   ar
    30    15    21   ar
    31    16    18   ar
    32    16    32    1
    33    17    19   ar
    34    17    33    1
    35    18    19   ar
    36    20    22   ar
    37    21    24   ar
    38    21    35    1
    39    22    24   ar
    40    23    36    1
    41    23    37    1
    42    24    38    1
    43    25    39    1
    44    25    40    1
    45    25    41    1
    46    26    42    1
    47    26    43    1
    48    26    44    1
