@<TRIPOS>MOLECULE
IMPHY012564
 78 80 0 0 0
SMALL
GASTEIGER

@<TRIPOS>ATOM
      1 O           6.3301    1.0000    0.0000 O.2     1  UNL1       -0.4702
      2 O           7.1962   -0.5000    0.0000 O.3     1  UNL1       -0.3084
      3 O          10.5920    1.5000    0.0000 O.3     1  UNL1       -0.4612
      4 O           5.4641   -0.5000    0.0000 O.3     1  UNL1       -0.3371
      5 O           7.1962   -2.5000    0.0000 O.3     1  UNL1       -0.4525
      6 O           6.3301    4.0000    0.0000 O.3     1  UNL1       -0.4646
      7 O           5.4641   -3.5000    0.0000 O.3     1  UNL1       -0.4537
      8 O           3.7320   -2.5000    0.0000 O.3     1  UNL1       -0.4549
      9 O           8.0622    4.0000    0.0000 O.2     1  UNL1       -0.2452
     10 O          10.5920    3.2320    0.0000 O.2     1  UNL1       -0.2512
     11 O           3.7320    0.5000    0.0000 O.3     1  UNL1       -0.4621
     12 O           6.3301   -4.0000    0.0000 O.2     1  UNL1       -0.2512
     13 O           3.7320   -3.5000    0.0000 O.2     1  UNL1       -0.2512
     14 O           2.8660   -1.0000    0.0000 O.2     1  UNL1       -0.2512
     15 O           2.0000    0.5000    0.0000 O.2     1  UNL1       -0.2512
     16 C           8.0622    1.0000    0.0000 C.3     1  UNL1        0.0348
     17 C           8.0622    2.0000    0.0000 C.3     1  UNL1        0.0060
     18 C           9.0084    0.6953    0.0000 C.3     1  UNL1        0.0024
     19 C           9.5920    1.5000    0.0000 C.3     1  UNL1        0.1066
     20 C           9.0084    2.3047    0.0000 C.3     1  UNL1       -0.0078
     21 C           7.1962    0.5000    0.0000 C.3     1  UNL1        0.2072
     22 C           7.1962    2.5000    0.0000 C.2     1  UNL1        0.0744
     23 C           9.3191   -0.2553    0.0000 C.3     1  UNL1       -0.0586
     24 C           6.3301    2.0000    0.0000 C.2     1  UNL1        0.0981
     25 C           6.3301   -1.0000    0.0000 C.3     1  UNL1        0.2041
     26 C           6.3301   -2.0000    0.0000 C.3     1  UNL1        0.1937
     27 C           7.1962    3.5000    0.0000 C.2     1  UNL1        0.3381
     28 C           5.4641   -2.5000    0.0000 C.3     1  UNL1        0.1836
     29 C           4.5981   -2.0000    0.0000 C.3     1  UNL1        0.1726
     30 C           4.5981   -1.0000    0.0000 C.3     1  UNL1        0.1361
     31 C          11.0920    2.3660    0.0000 C.2     1  UNL1        0.3042
     32 C           3.7320   -0.5000    0.0000 C.3     1  UNL1        0.1222
     33 C          12.0920    2.3660    0.0000 C.3     1  UNL1        0.0332
     34 C           7.1962   -3.5000    0.0000 C.2     1  UNL1        0.3045
     35 C           6.3301    5.0000    0.0000 C.3     1  UNL1        0.0820
     36 C           4.5981   -4.0000    0.0000 C.2     1  UNL1        0.3044
     37 C           2.8660   -2.0000    0.0000 C.2     1  UNL1        0.3044
     38 C           8.0622   -4.0000    0.0000 C.3     1  UNL1        0.0332
     39 C           4.5981   -5.0000    0.0000 C.3     1  UNL1        0.0332
     40 C           2.8660    1.0000    0.0000 C.2     1  UNL1        0.3040
     41 C           2.0000   -2.5000    0.0000 C.3     1  UNL1        0.0332
     42 C           2.8660    2.0000    0.0000 C.3     1  UNL1        0.0332
     43 H           8.1521    0.1548    0.0000 H       1  UNL1        0.0371
     44 H           8.1521    2.8452    0.0000 H       1  UNL1        0.0358
     45 H           9.6209    0.5991    0.0000 H       1  UNL1        0.0339
     46 H           9.8737    0.9477    0.0000 H       1  UNL1        0.0737
     47 H           9.5458    2.6140    0.0000 H       1  UNL1        0.0307
     48 H           8.7574    2.8716    0.0000 H       1  UNL1        0.0307
     49 H           7.7331    0.1900    0.0000 H       1  UNL1        0.1059
     50 H           8.7297   -0.4479    0.0000 H       1  UNL1        0.0234
     51 H           9.5117   -0.8446    0.0000 H       1  UNL1        0.0234
     52 H           9.9084   -0.0626    0.0000 H       1  UNL1        0.0234
     53 H           5.7932    2.3100    0.0000 H       1  UNL1        0.1029
     54 H           6.3301   -0.3800    0.0000 H       1  UNL1        0.0951
     55 H           6.3301   -2.6200    0.0000 H       1  UNL1        0.0825
     56 H           4.9272   -2.8100    0.0000 H       1  UNL1        0.0812
     57 H           4.5981   -2.6200    0.0000 H       1  UNL1        0.0801
     58 H           4.5981   -0.3800    0.0000 H       1  UNL1        0.0670
     59 H           3.1215   -0.3923    0.0000 H       1  UNL1        0.0725
     60 H           3.5200   -1.0826    0.0000 H       1  UNL1        0.0725
     61 H          12.0920    1.7460    0.0000 H       1  UNL1        0.0342
     62 H          12.7120    2.3660    0.0000 H       1  UNL1        0.0342
     63 H          12.0920    2.9860    0.0000 H       1  UNL1        0.0342
     64 H           6.9501    5.0000    0.0000 H       1  UNL1        0.0661
     65 H           6.3301    5.6200    0.0000 H       1  UNL1        0.0661
     66 H           5.7101    5.0000    0.0000 H       1  UNL1        0.0661
     67 H           7.7522   -4.5369    0.0000 H       1  UNL1        0.0342
     68 H           8.5991   -4.3100    0.0000 H       1  UNL1        0.0342
     69 H           8.3722   -3.4631    0.0000 H       1  UNL1        0.0342
     70 H           3.9781   -5.0000    0.0000 H       1  UNL1        0.0342
     71 H           4.5981   -5.6200    0.0000 H       1  UNL1        0.0342
     72 H           5.2181   -5.0000    0.0000 H       1  UNL1        0.0342
     73 H           1.6900   -1.9631    0.0000 H       1  UNL1        0.0342
     74 H           1.4631   -2.8100    0.0000 H       1  UNL1        0.0342
     75 H           2.3100   -3.0369    0.0000 H       1  UNL1        0.0342
     76 H           3.4860    2.0000    0.0000 H       1  UNL1        0.0342
     77 H           2.8660    2.6200    0.0000 H       1  UNL1        0.0342
     78 H           2.2460    2.0000    0.0000 H       1  UNL1        0.0342
@<TRIPOS>BOND
     1     1    21    1
     2     1    24    1
     3    21     2    1
     4    25     2    1
     5    19     3    1
     6     3    31    1
     7     4    25    1
     8     4    30    1
     9    26     5    1
    10     5    34    1
    11     6    27    1
    12     6    35    1
    13    28     7    1
    14     7    36    1
    15    29     8    1
    16     8    37    1
    17     9    27    2
    18    10    31    2
    19    11    32    1
    20    11    40    1
    21    12    34    2
    22    13    36    2
    23    14    37    2
    24    15    40    2
    25    16    17    1
    26    16    18    1
    27    16    21    1
    28    16    43    1
    29    17    20    1
    30    17    22    1
    31    17    44    1
    32    18    19    1
    33    18    23    1
    34    18    45    1
    35    19    20    1
    36    19    46    1
    37    20    47    1
    38    20    48    1
    39    21    49    1
    40    22    24    2
    41    22    27    1
    42    23    50    1
    43    23    51    1
    44    23    52    1
    45    24    53    1
    46    25    26    1
    47    25    54    1
    48    26    28    1
    49    26    55    1
    50    28    29    1
    51    28    56    1
    52    29    30    1
    53    29    57    1
    54    30    32    1
    55    30    58    1
    56    31    33    1
    57    32    59    1
    58    32    60    1
    59    33    61    1
    60    33    62    1
    61    33    63    1
    62    34    38    1
    63    35    64    1
    64    35    65    1
    65    35    66    1
    66    36    39    1
    67    37    41    1
    68    38    67    1
    69    38    68    1
    70    38    69    1
    71    39    70    1
    72    39    71    1
    73    39    72    1
    74    40    42    1
    75    41    73    1
    76    41    74    1
    77    41    75    1
    78    42    76    1
    79    42    77    1
    80    42    78    1
