@<TRIPOS>MOLECULE
IMPHY014678
 31 31 0 0 0
SMALL
GASTEIGER

@<TRIPOS>ATOM
      1 O           2.5369   -2.5600    0.0000 O.3     1  UNL1       -0.4793
      2 OXT         3.4030   -4.0600    0.0000 O.2     1  UNL1       -0.2489
      3 O           7.7331   -2.5600    0.0000 O.3     1  UNL1       -0.4763
      4 OXT         6.8671   -4.0600    0.0000 O.2     1  UNL1       -0.2437
      5 O           7.7331    3.4400    0.0000 O.3     1  UNL1       -0.4793
      6 O           6.0010    3.4400    0.0000 O.2     1  UNL1       -0.2489
      7 N           5.1350   -3.0600    0.0000 N.pl3   1  UNL1       -0.3256
      8 N           6.0010    1.4400    0.0000 N.2     1  UNL1       -0.2803
      9 CA          4.2690   -2.5600    0.0000 C.3     1  UNL1        0.1224
     10 C           4.2690   -1.5600    0.0000 C.3     1  UNL1        0.0013
     11 C           5.1350   -1.0600    0.0000 C.2     1  UNL1       -0.0417
     12 CA          6.0010   -2.5600    0.0000 C.2     1  UNL1        0.1130
     13 C           6.0010   -1.5600    0.0000 C.2     1  UNL1       -0.0306
     14 C           3.4030   -3.0600    0.0000 C.2     1  UNL1        0.3255
     15 C           5.1350   -0.0600    0.0000 C.2     1  UNL1       -0.0407
     16 C           6.8671   -3.0600    0.0000 C.2     1  UNL1        0.3508
     17 C           6.0010    0.4400    0.0000 C.2     1  UNL1        0.0230
     18 C           6.8671    1.9400    0.0000 C.3     1  UNL1        0.1363
     19 C           6.8671    2.9400    0.0000 C.2     1  UNL1        0.3263
     20 HA          4.2690   -3.1800    0.0000 H       1  UNL1        0.0617
     21 H           4.0569   -0.9774    0.0000 H       1  UNL1        0.0337
     22 H           3.6584   -1.6677    0.0000 H       1  UNL1        0.0337
     23 H           5.1350   -3.6800    0.0000 H       1  UNL1        0.1471
     24 H           6.5380   -1.2500    0.0000 H       1  UNL1        0.0641
     25 H           4.5981    0.2500    0.0000 H       1  UNL1        0.0635
     26 H           6.5380    0.1300    0.0000 H       1  UNL1        0.0825
     27 H           2.0000   -2.8700    0.0000 H       1  UNL1        0.2951
     28 H           8.2700   -2.8700    0.0000 H       1  UNL1        0.2954
     29 H           7.0791    1.3574    0.0000 H       1  UNL1        0.0624
     30 H           7.4776    2.0477    0.0000 H       1  UNL1        0.0624
     31 H           7.7331    4.0600    0.0000 H       1  UNL1        0.2951
@<TRIPOS>BOND
     1     1    14    1
     2     1    27    1
     3     2    14    2
     4     3    16    1
     5     3    28    1
     6     4    16    2
     7     5    19    1
     8     5    31    1
     9     6    19    2
    10     7     9    1
    11     7    12    1
    12     7    23    1
    13     8    17    2
    14     8    18    1
    15     9    10    1
    16     9    14    1
    17     9    20    1
    18    10    11    1
    19    10    21    1
    20    10    22    1
    21    11    13    1
    22    11    15    2
    23    12    13    2
    24    12    16    1
    25    13    24    1
    26    15    17    1
    27    15    25    1
    28    17    26    1
    29    18    19    1
    30    18    29    1
    31    18    30    1
