@<TRIPOS>MOLECULE
IMPHY002695
 35 35 0 0 0
SMALL
GASTEIGER

@<TRIPOS>ATOM
      1 O           3.0878   -0.4897    0.0000 O.2     1  UNL1       -0.4672
      2 O           7.0773    1.7965    0.0000 O.2     1  UNL1       -0.2977
      3 C           4.8479   -0.2109    0.0000 C.3     1  UNL1        0.0199
      4 C           5.0558   -1.1890    0.0000 C.3     1  UNL1       -0.0370
      5 C           5.5910    0.4582    0.0000 C.3     1  UNL1       -0.0364
      6 C           3.8968    0.0981    0.0000 C.ar    1  UNL1        0.1084
      7 C           6.5421    0.1492    0.0000 C.3     1  UNL1        0.0062
      8 C           6.0068   -1.4981    0.0000 C.3     1  UNL1       -0.0620
      9 C           4.3126   -1.8582    0.0000 C.3     1  UNL1       -0.0620
     10 C           3.5878    1.0492    0.0000 C.ar    1  UNL1       -0.0175
     11 C           2.5878    1.0492    0.0000 C.ar    1  UNL1       -0.0125
     12 C           7.2852    0.8183    0.0000 C.2     1  UNL1        0.1303
     13 C           2.2788    0.0981    0.0000 C.ar    1  UNL1        0.0950
     14 C           2.0000    1.8582    0.0000 C.3     1  UNL1       -0.0367
     15 C           8.2363    0.5093    0.0000 C.3     1  UNL1       -0.0061
     16 H           5.4375   -0.4025    0.0000 H       1  UNL1        0.0382
     17 H           5.1847   -1.7955    0.0000 H       1  UNL1        0.0302
     18 H           5.8821    1.0056    0.0000 H       1  UNL1        0.0276
     19 H           5.1024    0.8399    0.0000 H       1  UNL1        0.0276
     20 H           6.2510   -0.3982    0.0000 H       1  UNL1        0.0342
     21 H           7.0306   -0.2325    0.0000 H       1  UNL1        0.0342
     22 H           5.8152   -2.0877    0.0000 H       1  UNL1        0.0233
     23 H           6.5965   -1.6897    0.0000 H       1  UNL1        0.0233
     24 H           6.1984   -0.9084    0.0000 H       1  UNL1        0.0233
     25 H           3.8978   -1.3974    0.0000 H       1  UNL1        0.0233
     26 H           3.8519   -2.2730    0.0000 H       1  UNL1        0.0233
     27 H           4.7275   -2.3189    0.0000 H       1  UNL1        0.0233
     28 H           3.9522    1.5508    0.0000 H       1  UNL1        0.0654
     29 H           1.6891   -0.0935    0.0000 H       1  UNL1        0.1032
     30 H           2.5016    2.2226    0.0000 H       1  UNL1        0.0278
     31 H           1.6356    2.3598    0.0000 H       1  UNL1        0.0278
     32 H           1.4984    1.4938    0.0000 H       1  UNL1        0.0278
     33 H           8.0447   -0.0803    0.0000 H       1  UNL1        0.0306
     34 H           8.8259    0.3177    0.0000 H       1  UNL1        0.0306
     35 H           8.4278    1.0990    0.0000 H       1  UNL1        0.0306
@<TRIPOS>BOND
     1     1     6   ar
     2     1    13   ar
     3     2    12    2
     4     3     4    1
     5     3     5    1
     6     3     6    1
     7     3    16    1
     8     4     8    1
     9     4     9    1
    10     4    17    1
    11     5     7    1
    12     5    18    1
    13     5    19    1
    14     6    10   ar
    15     7    12    1
    16     7    20    1
    17     7    21    1
    18     8    22    1
    19     8    23    1
    20     8    24    1
    21     9    25    1
    22     9    26    1
    23     9    27    1
    24    10    11   ar
    25    10    28    1
    26    11    13   ar
    27    11    14    1
    28    12    15    1
    29    13    29    1
    30    14    30    1
    31    14    31    1
    32    14    32    1
    33    15    33    1
    34    15    34    1
    35    15    35    1
