@<TRIPOS>MOLECULE
IMPHY008155
 32 33 0 0 0
SMALL
GASTEIGER

@<TRIPOS>ATOM
      1 O           4.5981    3.8100    0.0000 O.3     1  UNL1       -0.4951
      2 O           5.4641   -3.6900    0.0000 O.3     1  UNL1       -0.5066
      3 O           2.0000   -3.6900    0.0000 O.3     1  UNL1       -0.5066
      4 C           3.7320   -1.6900    0.0000 C.ar    1  UNL1       -0.0181
      5 C           4.5981    0.8100    0.0000 C.ar    1  UNL1       -0.0248
      6 C           3.7320   -0.6900    0.0000 C.2     1  UNL1       -0.0538
      7 C           4.5981   -0.1900    0.0000 C.2     1  UNL1       -0.0540
      8 C           2.8660   -2.1900    0.0000 C.ar    1  UNL1       -0.0128
      9 C           4.5981   -2.1900    0.0000 C.ar    1  UNL1       -0.0128
     10 C           5.4641    1.3100    0.0000 C.ar    1  UNL1       -0.0511
     11 C           3.7320    1.3100    0.0000 C.ar    1  UNL1       -0.0511
     12 C           4.5981    2.8100    0.0000 C.ar    1  UNL1        0.1201
     13 C           5.4641    2.3100    0.0000 C.ar    1  UNL1       -0.0194
     14 C           3.7320    2.3100    0.0000 C.ar    1  UNL1       -0.0194
     15 C           4.5981   -3.1900    0.0000 C.ar    1  UNL1        0.1209
     16 C           2.8660   -3.1900    0.0000 C.ar    1  UNL1        0.1209
     17 C           3.7320   -3.6900    0.0000 C.ar    1  UNL1        0.0213
     18 C           5.4641    4.3100    0.0000 C.3     1  UNL1        0.0788
     19 H           3.1951   -0.3800    0.0000 H       1  UNL1        0.0624
     20 H           5.1350   -0.5000    0.0000 H       1  UNL1        0.0624
     21 H           2.3291   -1.8800    0.0000 H       1  UNL1        0.0660
     22 H           5.1350   -1.8800    0.0000 H       1  UNL1        0.0660
     23 H           6.0010    1.0000    0.0000 H       1  UNL1        0.0625
     24 H           3.1951    1.0000    0.0000 H       1  UNL1        0.0625
     25 H           6.0010    2.6200    0.0000 H       1  UNL1        0.0654
     26 H           3.1951    2.6200    0.0000 H       1  UNL1        0.0654
     27 H           3.7320   -4.3100    0.0000 H       1  UNL1        0.0691
     28 H           5.4641   -4.3100    0.0000 H       1  UNL1        0.2921
     29 H           2.0000   -4.3100    0.0000 H       1  UNL1        0.2921
     30 H           5.7741    3.7731    0.0000 H       1  UNL1        0.0660
     31 H           6.0010    4.6200    0.0000 H       1  UNL1        0.0660
     32 H           5.1541    4.8469    0.0000 H       1  UNL1        0.0660
@<TRIPOS>BOND
     1     1    12    1
     2     1    18    1
     3     2    15    1
     4     2    28    1
     5     3    16    1
     6     3    29    1
     7     4     6    1
     8     4     8   ar
     9     4     9   ar
    10     5     7    1
    11     5    10   ar
    12     5    11   ar
    13     6     7    2
    14     6    19    1
    15     7    20    1
    16     8    16   ar
    17     8    21    1
    18     9    15   ar
    19     9    22    1
    20    10    13   ar
    21    10    23    1
    22    11    14   ar
    23    11    24    1
    24    12    13   ar
    25    12    14   ar
    26    13    25    1
    27    14    26    1
    28    15    17   ar
    29    16    17   ar
    30    17    27    1
    31    18    30    1
    32    18    31    1
    33    18    32    1
