@<TRIPOS>MOLECULE
IMPHY001251
 39 42 0 0 0
SMALL
GASTEIGER

@<TRIPOS>ATOM
      1 O           4.2864   -2.4065    0.0000 O.3     1  UNL1       -0.4814
      2 O           2.5405    0.7508    0.0000 O.3     1  UNL1       -0.5059
      3 O           3.4446    2.2477    0.0000 O.2     1  UNL1       -0.2864
      4 N           6.0427    0.7477    0.0000 N.ar    1  UNL1       -0.3409
      5 N           6.9608    3.2962    0.0000 N.ar    1  UNL1       -0.2612
      6 C           5.2260   -2.9490    0.0000 C.3     1  UNL1        0.1235
      7 C           5.1767    0.2477    0.0000 C.ar    1  UNL1        0.0673
      8 C           5.1928   -0.7938    0.0000 C.ar    1  UNL1        0.0409
      9 C           4.2947   -1.3216    0.0000 C.ar    1  UNL1        0.1343
     10 C           4.3107    0.7477    0.0000 C.ar    1  UNL1        0.0879
     11 C           6.1614   -2.3993    0.0000 C.2     1  UNL1       -0.0408
     12 C           6.1447   -1.3144    0.0000 C.2     1  UNL1       -0.0493
     13 C           6.0427    1.7477    0.0000 C.ar    1  UNL1        0.0713
     14 C           3.4007    0.2409    0.0000 C.ar    1  UNL1        0.1332
     15 C           5.1767    2.2477    0.0000 C.ar    1  UNL1        0.0488
     16 C           3.3926   -0.8007    0.0000 C.ar    1  UNL1        0.0230
     17 C           4.3107    1.7477    0.0000 C.ar    1  UNL1        0.2007
     18 C           5.7293   -3.8131    0.0000 C.3     1  UNL1       -0.0215
     19 C           4.7293   -3.8170    0.0000 C.3     1  UNL1       -0.0215
     20 C           6.9088    0.2477    0.0000 C.3     1  UNL1        0.0125
     21 C           6.9527    2.2546    0.0000 C.ar    1  UNL1        0.0517
     22 C           5.1606    3.2892    0.0000 C.ar    1  UNL1       -0.0308
     23 C           6.0587    3.8170    0.0000 C.ar    1  UNL1        0.0284
     24 H           6.7019   -2.7031    0.0000 H       1  UNL1        0.0611
     25 H           6.6756   -0.9941    0.0000 H       1  UNL1        0.0623
     26 H           2.8545   -1.1087    0.0000 H       1  UNL1        0.0691
     27 H           5.1936   -4.1252    0.0000 H       1  UNL1        0.0271
     28 H           6.0414   -4.3488    0.0000 H       1  UNL1        0.0271
     29 H           4.1912   -3.5090    0.0000 H       1  UNL1        0.0271
     30 H           4.4214   -4.3551    0.0000 H       1  UNL1        0.0271
     31 H           5.2675   -4.1249    0.0000 H       1  UNL1        0.0271
     32 H           6.2651   -3.5010    0.0000 H       1  UNL1        0.0271
     33 H           6.5988   -0.2892    0.0000 H       1  UNL1        0.0456
     34 H           7.4457   -0.0623    0.0000 H       1  UNL1        0.0456
     35 H           7.2188    0.7846    0.0000 H       1  UNL1        0.0456
     36 H           7.4860    1.9384    0.0000 H       1  UNL1        0.0851
     37 H           4.6202    3.5930    0.0000 H       1  UNL1        0.0640
     38 H           6.0563    4.4370    0.0000 H       1  UNL1        0.0830
     39 H           2.0000    0.4471    0.0000 H       1  UNL1        0.2922
@<TRIPOS>BOND
     1     1     6    1
     2     1     9    1
     3     2    14    1
     4     2    39    1
     5     3    17    2
     6     4     7   ar
     7     4    13   ar
     8     4    20    1
     9     5    21   ar
    10     5    23   ar
    11     6    11    1
    12     6    18    1
    13     6    19    1
    14     7     8   ar
    15     7    10   ar
    16     8     9   ar
    17     8    12    1
    18     9    16   ar
    19    10    14   ar
    20    10    17   ar
    21    11    12    2
    22    11    24    1
    23    12    25    1
    24    13    15   ar
    25    13    21   ar
    26    14    16   ar
    27    15    17   ar
    28    15    22   ar
    29    16    26    1
    30    18    27    1
    31    18    28    1
    32    18    32    1
    33    19    29    1
    34    19    30    1
    35    19    31    1
    36    20    33    1
    37    20    34    1
    38    20    35    1
    39    21    36    1
    40    22    23   ar
    41    22    37    1
    42    23    38    1
