@<TRIPOS>MOLECULE
IMPHY001431
 83 87 0 0 0
SMALL
GASTEIGER

@<TRIPOS>ATOM
      1 O           2.5357   -2.5933    0.0000 O.3     1  UNL1       -0.3887
      2 O           2.5519   -0.5017    0.0000 O.3     1  UNL1       -0.3892
      3 O           7.9222    2.5616    0.0000 O.3     1  UNL1       -0.3906
      4 O          11.4608    0.4932    0.0000 O.3     1  UNL1       -0.4802
      5 O          10.6064   -1.0134    0.0000 O.2     1  UNL1       -0.2504
      6 C           7.0628   -1.0410    0.0000 C.3     1  UNL1       -0.0194
      7 C           6.1968   -0.5410    0.0000 C.3     1  UNL1       -0.0257
      8 C           5.2868   -1.0478    0.0000 C.3     1  UNL1       -0.0226
      9 C           7.9288   -0.5410    0.0000 C.3     1  UNL1       -0.0050
     10 C           5.2787   -2.0894    0.0000 C.3     1  UNL1       -0.0277
     11 C           7.0789   -2.0825    0.0000 C.3     1  UNL1       -0.0463
     12 C           7.9288    0.4590    0.0000 C.2     1  UNL1       -0.0604
     13 C           6.1808   -2.6102    0.0000 C.3     1  UNL1       -0.0486
     14 C           4.3433   -2.6391    0.0000 C.3     1  UNL1       -0.0032
     15 C           8.8228    0.9937    0.0000 C.3     1  UNL1        0.0229
     16 C           6.1968    0.4590    0.0000 C.3     1  UNL1       -0.0306
     17 C           4.3599   -0.4837    0.0000 C.3     1  UNL1       -0.0184
     18 C           8.8228   -1.0756    0.0000 C.3     1  UNL1       -0.0424
     19 C           9.7288    0.4799    0.0000 C.3     1  UNL1        0.0765
     20 C           7.7056   -1.8070    0.0000 C.3     1  UNL1       -0.0585
     21 C           9.7288   -0.5618    0.0000 C.3     1  UNL1       -0.0358
     22 C           3.4037   -2.0966    0.0000 C.3     1  UNL1        0.0864
     23 C           7.0628    0.9590    0.0000 C.2     1  UNL1       -0.0836
     24 C           5.2945   -0.0478    0.0000 C.3     1  UNL1       -0.0589
     25 C           3.4120   -1.0117    0.0000 C.3     1  UNL1        0.0821
     26 C           8.2709   -1.4806    0.0000 C.3     1  UNL1       -0.0553
     27 C           8.7977    2.0784    0.0000 C.3     1  UNL1        0.0678
     28 C          10.6726    1.0151    0.0000 C.3     1  UNL1       -0.0360
     29 C           9.7288    2.6353    0.0000 C.3     1  UNL1       -0.0083
     30 C          10.6726    2.1001    0.0000 C.3     1  UNL1       -0.0445
     31 C           3.8467   -3.5071    0.0000 C.3     1  UNL1       -0.0571
     32 C           4.8466   -3.5032    0.0000 C.3     1  UNL1       -0.0571
     33 C          10.5987   -0.0135    0.0000 C.2     1  UNL1        0.3116
     34 C          10.2188    3.5071    0.0000 C.3     1  UNL1       -0.0574
     35 C           9.2188    3.4955    0.0000 C.3     1  UNL1       -0.0574
     36 H           6.9329   -0.1160    0.0000 H       1  UNL1        0.0315
     37 H           5.2820   -2.9394    0.0000 H       1  UNL1        0.0312
     38 H           7.2969   -2.6629    0.0000 H       1  UNL1        0.0271
     39 H           7.6880   -1.9670    0.0000 H       1  UNL1        0.0271
     40 H           5.7835   -3.0862    0.0000 H       1  UNL1        0.0268
     41 H           6.5818   -3.0831    0.0000 H       1  UNL1        0.0268
     42 H           8.0786    1.4044    0.0000 H       1  UNL1        0.0382
     43 H           5.9847    1.0416    0.0000 H       1  UNL1        0.0310
     44 H           5.5862    0.3514    0.0000 H       1  UNL1        0.0310
     45 H           4.7681   -0.0171    0.0000 H       1  UNL1        0.0296
     46 H           3.9700   -0.0017    0.0000 H       1  UNL1        0.0296
     47 H           8.4182   -1.5454    0.0000 H       1  UNL1        0.0274
     48 H           9.2164   -1.5546    0.0000 H       1  UNL1        0.0274
     49 H           7.2306   -2.2055    0.0000 H       1  UNL1        0.0235
     50 H           8.1041   -2.2820    0.0000 H       1  UNL1        0.0235
     51 H           8.1805   -1.4085    0.0000 H       1  UNL1        0.0235
     52 H           9.9379   -1.1455    0.0000 H       1  UNL1        0.0276
     53 H          10.3397   -0.4557    0.0000 H       1  UNL1        0.0276
     54 H           3.4025   -2.7166    0.0000 H       1  UNL1        0.0624
     55 H           7.0628    1.5790    0.0000 H       1  UNL1        0.0572
     56 H           5.9145   -0.0526    0.0000 H       1  UNL1        0.0235
     57 H           5.2993    0.5721    0.0000 H       1  UNL1        0.0235
     58 H           4.6745   -0.0431    0.0000 H       1  UNL1        0.0235
     59 H           3.4204   -0.3917    0.0000 H       1  UNL1        0.0619
     60 H           7.6884   -1.6927    0.0000 H       1  UNL1        0.0238
     61 H           8.4830   -2.0632    0.0000 H       1  UNL1        0.0238
     62 H           8.8535   -1.2685    0.0000 H       1  UNL1        0.0238
     63 H           8.2674    1.7571    0.0000 H       1  UNL1        0.0605
     64 H          10.8817    0.4314    0.0000 H       1  UNL1        0.0276
     65 H          11.2835    1.1212    0.0000 H       1  UNL1        0.0276
     66 H          11.2835    1.9940    0.0000 H       1  UNL1        0.0272
     67 H          10.8817    2.6838    0.0000 H       1  UNL1        0.0272
     68 H           3.3085   -3.1992    0.0000 H       1  UNL1        0.0236
     69 H           3.5387   -4.0452    0.0000 H       1  UNL1        0.0236
     70 H           4.3848   -3.8150    0.0000 H       1  UNL1        0.0236
     71 H           4.3109   -3.8153    0.0000 H       1  UNL1        0.0236
     72 H           5.1587   -4.0390    0.0000 H       1  UNL1        0.0236
     73 H           5.3824   -3.1912    0.0000 H       1  UNL1        0.0236
     74 H          10.7593    3.2033    0.0000 H       1  UNL1        0.0236
     75 H          10.5226    4.0476    0.0000 H       1  UNL1        0.0236
     76 H           9.6783    3.8108    0.0000 H       1  UNL1        0.0236
     77 H           9.7522    3.8117    0.0000 H       1  UNL1        0.0236
     78 H           8.9027    4.0288    0.0000 H       1  UNL1        0.0236
     79 H           8.6855    3.1793    0.0000 H       1  UNL1        0.0236
     80 H           2.0000   -2.2812    0.0000 H       1  UNL1        0.2099
     81 H           2.5590    0.1183    0.0000 H       1  UNL1        0.2099
     82 H           7.9102    3.1815    0.0000 H       1  UNL1        0.2098
     83 H          12.0001    0.1874    0.0000 H       1  UNL1        0.2951
@<TRIPOS>BOND
     1    22     1    1
     2     1    80    1
     3    25     2    1
     4     2    81    1
     5    27     3    1
     6     3    82    1
     7     4    33    1
     8     4    83    1
     9     5    33    2
    10     6     7    1
    11     6     9    1
    12     6    11    1
    13     6    20    1
    14     7     8    1
    15     7    16    1
    16     7    36    1
    17     8    10    1
    18     8    17    1
    19     8    24    1
    20     9    12    1
    21     9    18    1
    22     9    26    1
    23    10    13    1
    24    10    14    1
    25    10    37    1
    26    11    13    1
    27    11    38    1
    28    11    39    1
    29    12    15    1
    30    12    23    2
    31    13    40    1
    32    13    41    1
    33    14    22    1
    34    14    31    1
    35    14    32    1
    36    15    19    1
    37    15    27    1
    38    15    42    1
    39    16    23    1
    40    16    43    1
    41    16    44    1
    42    17    25    1
    43    17    45    1
    44    17    46    1
    45    18    21    1
    46    18    47    1
    47    18    48    1
    48    19    21    1
    49    19    28    1
    50    19    33    1
    51    20    49    1
    52    20    50    1
    53    20    51    1
    54    21    52    1
    55    21    53    1
    56    22    25    1
    57    22    54    1
    58    23    55    1
    59    24    56    1
    60    24    57    1
    61    24    58    1
    62    25    59    1
    63    26    60    1
    64    26    61    1
    65    26    62    1
    66    27    29    1
    67    27    63    1
    68    28    30    1
    69    28    64    1
    70    28    65    1
    71    29    30    1
    72    29    34    1
    73    29    35    1
    74    30    66    1
    75    30    67    1
    76    31    68    1
    77    31    69    1
    78    31    70    1
    79    32    71    1
    80    32    72    1
    81    32    73    1
    82    34    74    1
    83    34    75    1
    84    34    76    1
    85    35    77    1
    86    35    78    1
    87    35    79    1
