@<TRIPOS>MOLECULE
IMPHY003855
 16 15 0 0 0
SMALL
GASTEIGER

@<TRIPOS>ATOM
      1 O           5.4641    0.6900    0.0000 O.3     1  UNL1       -0.3910
      2 C           2.8660   -0.8100    0.0000 C.3     1  UNL1       -0.0375
      3 C           2.8660    0.1900    0.0000 C.2     1  UNL1       -0.0861
      4 C           2.0000   -1.3100    0.0000 C.3     1  UNL1       -0.0618
      5 C           3.7320    0.6900    0.0000 C.2     1  UNL1       -0.0629
      6 C           4.5981    0.1900    0.0000 C.3     1  UNL1        0.0624
      7 H           3.0781   -1.3926    0.0000 H       1  UNL1        0.0305
      8 H           3.4766   -0.7023    0.0000 H       1  UNL1        0.0305
      9 H           2.3291    0.5000    0.0000 H       1  UNL1        0.0570
     10 H           1.6900   -0.7731    0.0000 H       1  UNL1        0.0233
     11 H           1.4631   -1.6200    0.0000 H       1  UNL1        0.0233
     12 H           2.3100   -1.8469    0.0000 H       1  UNL1        0.0233
     13 H           3.7320    1.3100    0.0000 H       1  UNL1        0.0591
     14 H           4.1996   -0.2849    0.0000 H       1  UNL1        0.0601
     15 H           4.9966   -0.2849    0.0000 H       1  UNL1        0.0601
     16 H           6.0010    0.3800    0.0000 H       1  UNL1        0.2098
@<TRIPOS>BOND
     1     1     6    1
     2     1    16    1
     3     2     3    1
     4     2     4    1
     5     2     7    1
     6     2     8    1
     7     3     5    2
     8     3     9    1
     9     4    10    1
    10     4    11    1
    11     4    12    1
    12     5     6    1
    13     5    13    1
    14     6    14    1
    15     6    15    1
