@<TRIPOS>MOLECULE
IMPHY004878
 39 41 0 0 0
SMALL
GASTEIGER

@<TRIPOS>ATOM
      1 O           6.3981   -0.2704    0.0000 O.2     1  UNL1       -0.4507
      2 O           2.8680    1.7538    0.0000 O.3     1  UNL1       -0.4885
      3 O           2.8680   -0.2945    0.0000 O.3     1  UNL1       -0.4912
      4 O           4.6497    2.7642    0.0000 O.3     1  UNL1       -0.5027
      5 O           8.1301    1.7296    0.0000 O.3     1  UNL1       -0.5007
      6 O           6.3981    2.7296    0.0000 O.2     1  UNL1       -0.2830
      7 O           8.9962   -2.7704    0.0000 O.3     1  UNL1       -0.5033
      8 O          10.7282   -1.7704    0.0000 O.3     1  UNL1       -0.5033
      9 C           5.5320    1.2296    0.0000 C.ar    1  UNL1        0.1128
     10 C           5.5320    0.2296    0.0000 C.ar    1  UNL1        0.1468
     11 C           7.2641    0.2296    0.0000 C.ar    1  UNL1        0.1807
     12 C           4.6381    1.7643    0.0000 C.ar    1  UNL1        0.1769
     13 C           6.3981    1.7296    0.0000 C.ar    1  UNL1        0.2380
     14 C           7.2641    1.2296    0.0000 C.ar    1  UNL1        0.2082
     15 C           4.6381   -0.3051    0.0000 C.ar    1  UNL1        0.0270
     16 C           3.7320    1.2504    0.0000 C.ar    1  UNL1        0.2043
     17 C           8.1301   -0.2704    0.0000 C.ar    1  UNL1        0.0247
     18 C           3.7320    0.2088    0.0000 C.ar    1  UNL1        0.1687
     19 C           8.1301   -1.2704    0.0000 C.ar    1  UNL1       -0.0057
     20 C           8.9962    0.2296    0.0000 C.ar    1  UNL1       -0.0473
     21 C           8.9962   -1.7704    0.0000 C.ar    1  UNL1        0.1589
     22 C           9.8622   -0.2704    0.0000 C.ar    1  UNL1       -0.0159
     23 C           9.8622   -1.2704    0.0000 C.ar    1  UNL1        0.1583
     24 C           2.0000    1.2571    0.0000 C.3     1  UNL1        0.0791
     25 C           2.8718   -1.2945    0.0000 C.3     1  UNL1        0.0790
     26 H           4.6453   -0.9250    0.0000 H       1  UNL1        0.0692
     27 H           7.5932   -1.5804    0.0000 H       1  UNL1        0.0662
     28 H           8.9962    0.8496    0.0000 H       1  UNL1        0.0626
     29 H          10.3991    0.0396    0.0000 H       1  UNL1        0.0655
     30 H           4.1164    3.0804    0.0000 H       1  UNL1        0.2923
     31 H           8.1301    2.3496    0.0000 H       1  UNL1        0.2924
     32 H           1.6921    1.7952    0.0000 H       1  UNL1        0.0660
     33 H           1.4619    0.9492    0.0000 H       1  UNL1        0.0660
     34 H           2.3079    0.7190    0.0000 H       1  UNL1        0.0660
     35 H           2.2518   -1.2969    0.0000 H       1  UNL1        0.0660
     36 H           2.8742   -1.9145    0.0000 H       1  UNL1        0.0660
     37 H           3.4918   -1.2921    0.0000 H       1  UNL1        0.0660
     38 H           9.5331   -3.0804    0.0000 H       1  UNL1        0.2923
     39 H          11.2651   -1.4604    0.0000 H       1  UNL1        0.2923
@<TRIPOS>BOND
     1     1    10   ar
     2     1    11   ar
     3     2    16    1
     4     2    24    1
     5     3    18    1
     6     3    25    1
     7     4    12    1
     8     4    30    1
     9     5    14    1
    10     5    31    1
    11     6    13    2
    12     7    21    1
    13     7    38    1
    14     8    23    1
    15     8    39    1
    16     9    10   ar
    17     9    12   ar
    18     9    13   ar
    19    10    15   ar
    20    11    14   ar
    21    11    17    1
    22    12    16   ar
    23    13    14   ar
    24    15    18   ar
    25    15    26    1
    26    16    18   ar
    27    17    19   ar
    28    17    20   ar
    29    19    21   ar
    30    19    27    1
    31    20    22   ar
    32    20    28    1
    33    21    23   ar
    34    22    23   ar
    35    22    29    1
    36    24    32    1
    37    24    33    1
    38    24    34    1
    39    25    35    1
    40    25    36    1
    41    25    37    1
