@<TRIPOS>MOLECULE
IMPHY002114
 79 84 0 0 0
SMALL
GASTEIGER

@<TRIPOS>ATOM
      1 O           4.7827    3.5373    0.0000 O.3     1  UNL1       -0.3482
      2 O           4.4167    4.9033    0.0000 O.3     1  UNL1       -0.3644
      3 C           3.0347    0.4680    0.0000 C.3     1  UNL1       -0.0230
      4 C           3.0264   -0.6169    0.0000 C.3     1  UNL1       -0.0231
      5 C           3.9328    0.9958    0.0000 C.3     1  UNL1       -0.0271
      6 C           3.9167    2.0373    0.0000 C.3     1  UNL1        0.0008
      7 C           3.9660   -1.1594    0.0000 C.3     1  UNL1       -0.0294
      8 C           3.0507    2.5373    0.0000 C.3     1  UNL1       -0.0253
      9 C           3.9834   -2.2894    0.0000 C.3     1  UNL1       -0.0254
     10 C           2.1327    0.9889    0.0000 C.3     1  UNL1       -0.0466
     11 C           4.8847    0.4752    0.0000 C.3     1  UNL1       -0.0488
     12 C           3.0507    3.5373    0.0000 C.3     1  UNL1        0.0161
     13 C           3.0091   -2.8621    0.0000 C.3     1  UNL1       -0.0302
     14 C           4.9014   -0.6097    0.0000 C.3     1  UNL1       -0.0489
     15 C           2.1407    2.0305    0.0000 C.3     1  UNL1       -0.0487
     16 C           2.0390   -1.1668    0.0000 C.3     1  UNL1       -0.0466
     17 C           4.0301    2.6409    0.0000 C.3     1  UNL1       -0.0443
     18 C           4.7827    2.5373    0.0000 C.3     1  UNL1        0.0571
     19 C           3.6301    3.3337    0.0000 C.3     1  UNL1       -0.0445
     20 C           2.0303   -2.2970    0.0000 C.3     1  UNL1       -0.0487
     21 C           2.0513    0.2868    0.0000 C.3     1  UNL1       -0.0588
     22 C           2.0416   -0.4433    0.0000 C.3     1  UNL1       -0.0588
     23 C           3.0000   -4.0392    0.0000 C.3     1  UNL1       -0.0315
     24 C           5.0163   -2.8543    0.0000 C.3     1  UNL1       -0.0471
     25 C           3.9167    4.0373    0.0000 C.3     1  UNL1        0.1674
     26 C           4.8456   -1.7828    0.0000 C.3     1  UNL1       -0.0590
     27 C           4.0195   -4.6278    0.0000 C.3     1  UNL1       -0.0476
     28 C           5.0344   -4.0314    0.0000 C.3     1  UNL1       -0.0521
     29 C           2.4967   -4.9033    0.0000 C.3     1  UNL1       -0.0595
     30 C           2.0000   -4.0354    0.0000 C.3     1  UNL1       -0.0595
     31 C           3.4167    4.9033    0.0000 C.3     1  UNL1       -0.0105
     32 H           4.4636    1.3161    0.0000 H       1  UNL1        0.0312
     33 H           4.5065   -1.4632    0.0000 H       1  UNL1        0.0312
     34 H           2.5162    2.8514    0.0000 H       1  UNL1        0.0311
     35 H           1.5226    1.0997    0.0000 H       1  UNL1        0.0271
     36 H           1.9191    0.4068    0.0000 H       1  UNL1        0.0271
     37 H           5.4971    0.3785    0.0000 H       1  UNL1        0.0268
     38 H           5.0847    1.0620    0.0000 H       1  UNL1        0.0268
     39 H           2.6257    4.2734    0.0000 H       1  UNL1        0.0355
     40 H           2.4709   -3.1700    0.0000 H       1  UNL1        0.0311
     41 H           5.1195   -1.1901    0.0000 H       1  UNL1        0.0268
     42 H           5.5106   -0.4942    0.0000 H       1  UNL1        0.0268
     43 H           1.9361    2.6157    0.0000 H       1  UNL1        0.0268
     44 H           1.5290    1.9291    0.0000 H       1  UNL1        0.0268
     45 H           1.8345   -0.5816    0.0000 H       1  UNL1        0.0271
     46 H           1.4274   -1.2682    0.0000 H       1  UNL1        0.0271
     47 H           4.5821    2.3585    0.0000 H       1  UNL1        0.0272
     48 H           4.4573    3.0903    0.0000 H       1  UNL1        0.0272
     49 H           4.9948    1.9547    0.0000 H       1  UNL1        0.0566
     50 H           5.3933    2.6450    0.0000 H       1  UNL1        0.0566
     51 H           4.2329    3.4789    0.0000 H       1  UNL1        0.0270
     52 H           3.6616    3.9529    0.0000 H       1  UNL1        0.0270
     53 H           1.4203   -2.1862    0.0000 H       1  UNL1        0.0268
     54 H           1.8168   -2.8790    0.0000 H       1  UNL1        0.0268
     55 H           1.9390    0.8966    0.0000 H       1  UNL1        0.0235
     56 H           1.4416    0.1745    0.0000 H       1  UNL1        0.0235
     57 H           2.1636   -0.3229    0.0000 H       1  UNL1        0.0235
     58 H           2.1492    0.1673    0.0000 H       1  UNL1        0.0235
     59 H           1.4310   -0.3356    0.0000 H       1  UNL1        0.0235
     60 H           1.9339   -1.0538    0.0000 H       1  UNL1        0.0235
     61 H           5.6287   -2.9510    0.0000 H       1  UNL1        0.0271
     62 H           5.2163   -2.2675    0.0000 H       1  UNL1        0.0271
     63 H           5.1597   -2.3173    0.0000 H       1  UNL1        0.0235
     64 H           5.3801   -1.4687    0.0000 H       1  UNL1        0.0235
     65 H           4.5315   -1.2483    0.0000 H       1  UNL1        0.0235
     66 H           3.6222   -5.1038    0.0000 H       1  UNL1        0.0271
     67 H           4.4204   -5.1007    0.0000 H       1  UNL1        0.0271
     68 H           5.2524   -4.6118    0.0000 H       1  UNL1        0.0266
     69 H           5.6436   -3.9159    0.0000 H       1  UNL1        0.0266
     70 H           1.9609   -4.5913    0.0000 H       1  UNL1        0.0235
     71 H           2.1846   -5.4391    0.0000 H       1  UNL1        0.0235
     72 H           3.0324   -5.2154    0.0000 H       1  UNL1        0.0235
     73 H           2.0024   -3.4154    0.0000 H       1  UNL1        0.0235
     74 H           1.3800   -4.0330    0.0000 H       1  UNL1        0.0235
     75 H           1.9976   -4.6554    0.0000 H       1  UNL1        0.0235
     76 H           3.9536    5.2133    0.0000 H       1  UNL1        0.0281
     77 H           3.1067    5.4403    0.0000 H       1  UNL1        0.0281
     78 H           2.8798    4.5933    0.0000 H       1  UNL1        0.0281
     79 H           5.0367    4.9033    0.0000 H       1  UNL1        0.2128
@<TRIPOS>BOND
     1     1    18    1
     2     1    25    1
     3     2    25    1
     4     2    79    1
     5     3     4    1
     6     3     5    1
     7     3    10    1
     8     3    21    1
     9     4     7    1
    10     4    16    1
    11     4    22    1
    12     5     6    1
    13     5    11    1
    14     5    32    1
    15     6     8    1
    16     6    17    1
    17     6    18    1
    18     7     9    1
    19     7    14    1
    20     7    33    1
    21     8    12    1
    22     8    15    1
    23     8    34    1
    24     9    13    1
    25     9    24    1
    26     9    26    1
    27    10    15    1
    28    10    35    1
    29    10    36    1
    30    11    14    1
    31    11    37    1
    32    11    38    1
    33    12    19    1
    34    12    25    1
    35    12    39    1
    36    13    20    1
    37    13    23    1
    38    13    40    1
    39    14    41    1
    40    14    42    1
    41    15    43    1
    42    15    44    1
    43    16    20    1
    44    16    45    1
    45    16    46    1
    46    17    19    1
    47    17    47    1
    48    17    48    1
    49    18    49    1
    50    18    50    1
    51    19    51    1
    52    19    52    1
    53    20    53    1
    54    20    54    1
    55    21    55    1
    56    21    56    1
    57    21    57    1
    58    22    58    1
    59    22    59    1
    60    22    60    1
    61    23    27    1
    62    23    29    1
    63    23    30    1
    64    24    28    1
    65    24    61    1
    66    24    62    1
    67    25    31    1
    68    26    63    1
    69    26    64    1
    70    26    65    1
    71    27    28    1
    72    27    66    1
    73    27    67    1
    74    28    68    1
    75    28    69    1
    76    29    70    1
    77    29    71    1
    78    29    72    1
    79    30    73    1
    80    30    74    1
    81    30    75    1
    82    31    76    1
    83    31    77    1
    84    31    78    1
