@<TRIPOS>MOLECULE
IMPHY012961
 60 64 0 0 0
SMALL
GASTEIGER

@<TRIPOS>ATOM
      1 N           7.3183    1.8686    0.0000 N.3     1  UNL1       -0.3018
      2 C           6.5251    0.2295    0.0000 C.3     1  UNL1       -0.0092
      3 C           6.5251   -0.7705    0.0000 C.3     1  UNL1       -0.0308
      4 C           5.6591   -1.2704    0.0000 C.3     1  UNL1       -0.0343
      5 C           7.4714    0.5343    0.0000 C.3     1  UNL1       -0.0186
      6 C           4.7931   -0.7705    0.0000 C.3     1  UNL1       -0.0323
      7 C           3.8831   -1.2773    0.0000 C.3     1  UNL1       -0.0261
      8 C           5.6591    0.7295    0.0000 C.3     1  UNL1       -0.0454
      9 C           7.4714   -1.0752    0.0000 C.3     1  UNL1       -0.0491
     10 C           4.7931    0.2295    0.0000 C.3     1  UNL1       -0.0489
     11 C           6.4270    1.2128    0.0000 C.3     1  UNL1        0.0051
     12 C           8.0550   -0.2705    0.0000 C.3     1  UNL1       -0.0480
     13 C           7.9654    1.3901    0.0000 C.3     1  UNL1        0.0107
     14 C           3.8751   -2.3189    0.0000 C.3     1  UNL1       -0.0354
     15 C           5.6752   -2.3120    0.0000 C.3     1  UNL1       -0.0494
     16 C           4.7771   -2.8397    0.0000 C.3     1  UNL1       -0.0494
     17 C           2.9562   -0.7132    0.0000 C.3     1  UNL1       -0.0471
     18 C           2.9396   -2.8686    0.0000 C.3     1  UNL1       -0.0497
     19 C           3.8908   -0.2773    0.0000 C.3     1  UNL1       -0.0590
     20 C           2.0084   -1.2412    0.0000 C.3     1  UNL1       -0.0525
     21 C           8.9168    1.6983    0.0000 C.3     1  UNL1       -0.0492
     22 C           2.0000   -2.3261    0.0000 C.3     1  UNL1       -0.0528
     23 C           7.3209    2.8686    0.0000 C.3     1  UNL1       -0.0125
     24 H           6.6151   -1.6157    0.0000 H       1  UNL1        0.0309
     25 H           6.3985   -1.6898    0.0000 H       1  UNL1        0.0306
     26 H           8.3202    0.5784    0.0000 H       1  UNL1        0.0322
     27 H           5.5292   -0.3455    0.0000 H       1  UNL1        0.0309
     28 H           6.0576    1.2045    0.0000 H       1  UNL1        0.0271
     29 H           5.2606    1.2045    0.0000 H       1  UNL1        0.0271
     30 H           7.2203   -1.6421    0.0000 H       1  UNL1        0.0268
     31 H           8.0087   -1.3844    0.0000 H       1  UNL1        0.0268
     32 H           4.5810    0.8122    0.0000 H       1  UNL1        0.0268
     33 H           4.1825    0.1219    0.0000 H       1  UNL1        0.0268
     34 H           6.1539    1.7695    0.0000 H       1  UNL1        0.0432
     35 H           5.8307    1.0428    0.0000 H       1  UNL1        0.0432
     36 H           8.5158   -0.6852    0.0000 H       1  UNL1        0.0269
     37 H           8.5158    0.1443    0.0000 H       1  UNL1        0.0269
     38 H           8.0653    2.0020    0.0000 H       1  UNL1        0.0463
     39 H           3.8774   -2.9389    0.0000 H       1  UNL1        0.0306
     40 H           5.8932   -2.8924    0.0000 H       1  UNL1        0.0268
     41 H           6.2843   -2.1965    0.0000 H       1  UNL1        0.0268
     42 H           4.3798   -3.3157    0.0000 H       1  UNL1        0.0268
     43 H           5.1781   -3.3126    0.0000 H       1  UNL1        0.0268
     44 H           3.3645   -0.2466    0.0000 H       1  UNL1        0.0271
     45 H           2.5663   -0.2312    0.0000 H       1  UNL1        0.0271
     46 H           2.5423   -3.3446    0.0000 H       1  UNL1        0.0268
     47 H           3.3406   -3.3415    0.0000 H       1  UNL1        0.0268
     48 H           4.5108   -0.2821    0.0000 H       1  UNL1        0.0235
     49 H           3.8956    0.3427    0.0000 H       1  UNL1        0.0235
     50 H           3.2708   -0.2725    0.0000 H       1  UNL1        0.0235
     51 H           1.8038   -0.6559    0.0000 H       1  UNL1        0.0265
     52 H           1.3967   -1.3425    0.0000 H       1  UNL1        0.0265
     53 H           9.1079    1.1084    0.0000 H       1  UNL1        0.0245
     54 H           9.5066    1.8894    0.0000 H       1  UNL1        0.0245
     55 H           8.7257    2.2881    0.0000 H       1  UNL1        0.0245
     56 H           1.3900   -2.2153    0.0000 H       1  UNL1        0.0265
     57 H           1.7864   -2.9082    0.0000 H       1  UNL1        0.0265
     58 H           7.9409    2.8670    0.0000 H       1  UNL1        0.0391
     59 H           7.3225    3.4886    0.0000 H       1  UNL1        0.0391
     60 H           6.7009    2.8702    0.0000 H       1  UNL1        0.0391
@<TRIPOS>BOND
     1     1    11    1
     2     1    13    1
     3     1    23    1
     4     2     3    1
     5     2     5    1
     6     2     8    1
     7     2    11    1
     8     3     4    1
     9     3     9    1
    10     3    24    1
    11     4     6    1
    12     4    15    1
    13     4    25    1
    14     5    12    1
    15     5    13    1
    16     5    26    1
    17     6     7    1
    18     6    10    1
    19     6    27    1
    20     7    14    1
    21     7    17    1
    22     7    19    1
    23     8    10    1
    24     8    28    1
    25     8    29    1
    26     9    12    1
    27     9    30    1
    28     9    31    1
    29    10    32    1
    30    10    33    1
    31    11    34    1
    32    11    35    1
    33    12    36    1
    34    12    37    1
    35    13    21    1
    36    13    38    1
    37    14    16    1
    38    14    18    1
    39    14    39    1
    40    15    16    1
    41    15    40    1
    42    15    41    1
    43    16    42    1
    44    16    43    1
    45    17    20    1
    46    17    44    1
    47    17    45    1
    48    18    22    1
    49    18    46    1
    50    18    47    1
    51    19    48    1
    52    19    49    1
    53    19    50    1
    54    20    22    1
    55    20    51    1
    56    20    52    1
    57    21    53    1
    58    21    54    1
    59    21    55    1
    60    22    56    1
    61    22    57    1
    62    23    58    1
    63    23    59    1
    64    23    60    1
