@<TRIPOS>MOLECULE
IMPHY005877
 58 61 0 0 0
SMALL
GASTEIGER

@<TRIPOS>ATOM
      1 O          10.4366    1.2618    0.0000 O.3     1  UNL1       -0.4814
      2 O           6.9006    1.2897    0.0000 O.2     1  UNL1       -0.4534
      3 O           3.4061   -2.7758    0.0000 O.3     1  UNL1       -0.3891
      4 O           6.9121   -1.7796    0.0000 O.2     1  UNL1       -0.2866
      5 O           8.6605   -1.7450    0.0000 O.3     1  UNL1       -0.5058
      6 O           6.0022    2.7758    0.0000 O.3     1  UNL1       -0.5059
      7 O           2.5381    2.7892    0.0000 O.3     1  UNL1       -0.5066
      8 C           5.1343   -1.7691    0.0000 C.3     1  UNL1       -0.0203
      9 C           4.2702   -2.2725    0.0000 C.3     1  UNL1        0.0608
     10 C           5.1304   -0.7691    0.0000 C.3     1  UNL1       -0.0179
     11 C           5.9945   -0.2658    0.0000 C.ar    1  UNL1        0.0431
     12 C          10.4446    2.3035    0.0000 C.3     1  UNL1        0.1235
     13 C           7.7945    0.7550    0.0000 C.ar    1  UNL1        0.1534
     14 C           7.7945   -0.2450    0.0000 C.ar    1  UNL1        0.1063
     15 C           8.6605    1.2550    0.0000 C.ar    1  UNL1        0.0597
     16 C           5.9945    0.7758    0.0000 C.ar    1  UNL1        0.1459
     17 C           6.9006   -0.7797    0.0000 C.ar    1  UNL1        0.1998
     18 C           9.5266    0.7550    0.0000 C.ar    1  UNL1        0.1359
     19 C           4.7735   -3.1366    0.0000 C.3     1  UNL1       -0.0363
     20 C           3.7668   -1.4084    0.0000 C.3     1  UNL1       -0.0363
     21 C           9.5425    2.8243    0.0000 C.2     1  UNL1       -0.0408
     22 C           8.6445    2.2965    0.0000 C.2     1  UNL1       -0.0478
     23 C           8.6605   -0.7450    0.0000 C.ar    1  UNL1        0.1347
     24 C           9.5266   -0.2450    0.0000 C.ar    1  UNL1        0.0231
     25 C          10.9479    3.1675    0.0000 C.3     1  UNL1       -0.0215
     26 C          11.4446    2.2996    0.0000 C.3     1  UNL1       -0.0215
     27 C           5.1304    1.2792    0.0000 C.ar    1  UNL1        0.0593
     28 C           5.1343    2.2792    0.0000 C.ar    1  UNL1        0.1310
     29 C           4.2625    0.7825    0.0000 C.ar    1  UNL1       -0.0441
     30 C           4.2702    2.7825    0.0000 C.ar    1  UNL1        0.0220
     31 C           3.3984    1.2858    0.0000 C.ar    1  UNL1       -0.0193
     32 C           3.4022    2.2858    0.0000 C.ar    1  UNL1        0.1204
     33 H           5.3486   -2.3509    0.0000 H       1  UNL1        0.0296
     34 H           5.7444   -1.6591    0.0000 H       1  UNL1        0.0296
     35 H           4.9161   -0.1874    0.0000 H       1  UNL1        0.0316
     36 H           4.5202   -0.8792    0.0000 H       1  UNL1        0.0316
     37 H           4.2378   -3.4486    0.0000 H       1  UNL1        0.0257
     38 H           5.0856   -3.6723    0.0000 H       1  UNL1        0.0257
     39 H           5.3092   -2.8245    0.0000 H       1  UNL1        0.0257
     40 H           4.3026   -1.0963    0.0000 H       1  UNL1        0.0257
     41 H           3.4548   -0.8726    0.0000 H       1  UNL1        0.0257
     42 H           3.2311   -1.7204    0.0000 H       1  UNL1        0.0257
     43 H           9.5401    3.4443    0.0000 H       1  UNL1        0.0611
     44 H           8.1040    2.6003    0.0000 H       1  UNL1        0.0624
     45 H          10.0635   -0.5550    0.0000 H       1  UNL1        0.0691
     46 H          11.4837    2.8555    0.0000 H       1  UNL1        0.0271
     47 H          11.4422    1.6796    0.0000 H       1  UNL1        0.0271
     48 H          12.0646    2.2972    0.0000 H       1  UNL1        0.0271
     49 H          11.4470    2.9196    0.0000 H       1  UNL1        0.0271
     50 H          11.2600    3.7033    0.0000 H       1  UNL1        0.0271
     51 H          10.4122    3.4796    0.0000 H       1  UNL1        0.0271
     52 H           3.4085   -3.3958    0.0000 H       1  UNL1        0.2101
     53 H           4.2601    0.1625    0.0000 H       1  UNL1        0.0627
     54 H           9.1975   -2.0550    0.0000 H       1  UNL1        0.2922
     55 H           4.2726    3.4025    0.0000 H       1  UNL1        0.0691
     56 H           2.8602    0.9779    0.0000 H       1  UNL1        0.0654
     57 H           6.0046    3.3958    0.0000 H       1  UNL1        0.2922
     58 H           2.0000    2.4812    0.0000 H       1  UNL1        0.2921
@<TRIPOS>BOND
     1     1    12    1
     2     1    18    1
     3     2    13   ar
     4     2    16   ar
     5     3     9    1
     6     3    52    1
     7     4    17    2
     8     5    23    1
     9     5    54    1
    10     6    28    1
    11     6    57    1
    12     7    32    1
    13     7    58    1
    14     8     9    1
    15     8    10    1
    16     8    33    1
    17     8    34    1
    18     9    19    1
    19     9    20    1
    20    10    11    1
    21    10    35    1
    22    10    36    1
    23    11    16   ar
    24    11    17   ar
    25    12    21    1
    26    12    25    1
    27    12    26    1
    28    13    14   ar
    29    13    15   ar
    30    14    17   ar
    31    14    23   ar
    32    15    18   ar
    33    15    22    1
    34    16    27    1
    35    18    24   ar
    36    19    37    1
    37    19    38    1
    38    19    39    1
    39    20    40    1
    40    20    41    1
    41    20    42    1
    42    21    22    2
    43    21    43    1
    44    22    44    1
    45    23    24   ar
    46    24    45    1
    47    25    46    1
    48    25    50    1
    49    25    51    1
    50    26    47    1
    51    26    48    1
    52    26    49    1
    53    27    28   ar
    54    27    29   ar
    55    28    30   ar
    56    29    31   ar
    57    29    53    1
    58    30    32   ar
    59    30    55    1
    60    31    32   ar
    61    31    56    1
