@<TRIPOS>MOLECULE
IMPHY017576
 19 19 0 0 0
SMALL
GASTEIGER

@<TRIPOS>ATOM
      1 O           4.5032    1.1144    0.0000 O.2     1  UNL1       -0.5034
      2 O           6.2633   -0.1643    0.0000 O.2     1  UNL1       -0.2888
      3 C           4.0032   -1.4244    0.0000 C.3     1  UNL1       -0.0208
      4 C           3.6942   -0.4734    0.0000 C.2     1  UNL1       -0.0245
      5 C           5.0032   -1.4244    0.0000 C.3     1  UNL1        0.0173
      6 C           2.7431   -0.1643    0.0000 C.3     1  UNL1       -0.0307
      7 C           4.5032    0.1144    0.0000 C.2     1  UNL1        0.1584
      8 C           5.3122   -0.4734    0.0000 C.2     1  UNL1        0.1973
      9 C           2.0000   -0.8335    0.0000 C.3     1  UNL1       -0.0614
     10 H           3.3968   -1.5533    0.0000 H       1  UNL1        0.0315
     11 H           4.0680   -2.0410    0.0000 H       1  UNL1        0.0315
     12 H           4.9384   -2.0410    0.0000 H       1  UNL1        0.0349
     13 H           5.6097   -1.5533    0.0000 H       1  UNL1        0.0349
     14 H           3.0342    0.3831    0.0000 H       1  UNL1        0.0309
     15 H           2.2546    0.2174    0.0000 H       1  UNL1        0.0309
     16 H           1.5851   -0.3727    0.0000 H       1  UNL1        0.0233
     17 H           1.5392   -1.2483    0.0000 H       1  UNL1        0.0233
     18 H           2.4149   -1.2942    0.0000 H       1  UNL1        0.0233
     19 H           5.0402    1.4244    0.0000 H       1  UNL1        0.2923
@<TRIPOS>BOND
     1     1     7    1
     2     1    19    1
     3     2     8    2
     4     3     4    1
     5     3     5    1
     6     3    10    1
     7     3    11    1
     8     4     6    1
     9     4     7    2
    10     5     8    1
    11     5    12    1
    12     5    13    1
    13     6     9    1
    14     6    14    1
    15     6    15    1
    16     7     8    1
    17     9    16    1
    18     9    17    1
    19     9    18    1
