@<TRIPOS>MOLECULE
IMPHY016350
 64 64 0 0 0
SMALL
GASTEIGER

@<TRIPOS>ATOM
      1 O          18.4545   -1.0000    0.0000 O.3     1  UNL1       -0.3513
      2 O          16.7224   -1.0000    0.0000 O.3     1  UNL1       -0.3513
      3 C          17.5885    0.5000    0.0000 C.3     1  UNL1       -0.0015
      4 C          17.5885   -0.5000    0.0000 C.3     1  UNL1        0.1591
      5 C          18.4545    1.0000    0.0000 C.3     1  UNL1       -0.0464
      6 C          19.3205    0.5000    0.0000 C.3     1  UNL1       -0.0292
      7 C          19.3205   -0.5000    0.0000 C.3     1  UNL1        0.0507
      8 C           5.4641    0.5000    0.0000 C.3     1  UNL1       -0.0531
      9 C           6.3301   -0.0000    0.0000 C.3     1  UNL1       -0.0530
     10 C          14.9904   -1.0000    0.0000 C.3     1  UNL1       -0.0294
     11 C          14.1244   -0.5000    0.0000 C.3     1  UNL1       -0.0509
     12 C           4.5981   -0.0000    0.0000 C.3     1  UNL1       -0.0531
     13 C          15.8564   -0.5000    0.0000 C.3     1  UNL1        0.0506
     14 C           7.1962    0.5000    0.0000 C.3     1  UNL1       -0.0522
     15 C          13.2583   -1.0000    0.0000 C.3     1  UNL1       -0.0521
     16 C           3.7320    0.5000    0.0000 C.3     1  UNL1       -0.0533
     17 C           8.0622   -0.0000    0.0000 C.3     1  UNL1       -0.0422
     18 C          12.3923   -0.5000    0.0000 C.3     1  UNL1       -0.0422
     19 C           2.8660   -0.0000    0.0000 C.3     1  UNL1       -0.0559
     20 C           8.9282    0.5000    0.0000 C.3     1  UNL1        0.0091
     21 C          11.5263   -1.0000    0.0000 C.3     1  UNL1        0.0091
     22 C           2.0000    0.5000    0.0000 C.3     1  UNL1       -0.0653
     23 C           9.7942   -0.0000    0.0000 C.1     1  UNL1       -0.1022
     24 C          10.6603   -0.5000    0.0000 C.1     1  UNL1       -0.1022
     25 H          17.3764    1.0826    0.0000 H       1  UNL1        0.0314
     26 H          16.9779    0.3923    0.0000 H       1  UNL1        0.0314
     27 H          17.5885   -1.1200    0.0000 H       1  UNL1        0.0909
     28 H          18.8530    1.4750    0.0000 H       1  UNL1        0.0268
     29 H          18.0560    1.4750    0.0000 H       1  UNL1        0.0268
     30 H          19.9311    0.3923    0.0000 H       1  UNL1        0.0287
     31 H          19.5326    1.0826    0.0000 H       1  UNL1        0.0287
     32 H          19.5326   -1.0826    0.0000 H       1  UNL1        0.0561
     33 H          19.9311   -0.3923    0.0000 H       1  UNL1        0.0561
     34 H           5.8626    0.9749    0.0000 H       1  UNL1        0.0265
     35 H           5.0656    0.9749    0.0000 H       1  UNL1        0.0265
     36 H           5.9316   -0.4749    0.0000 H       1  UNL1        0.0265
     37 H           6.7287   -0.4749    0.0000 H       1  UNL1        0.0265
     38 H          14.5919   -1.4750    0.0000 H       1  UNL1        0.0287
     39 H          15.3889   -1.4750    0.0000 H       1  UNL1        0.0287
     40 H          14.5229   -0.0251    0.0000 H       1  UNL1        0.0266
     41 H          13.7258   -0.0251    0.0000 H       1  UNL1        0.0266
     42 H           4.1996   -0.4749    0.0000 H       1  UNL1        0.0265
     43 H           4.9966   -0.4749    0.0000 H       1  UNL1        0.0265
     44 H          16.2549   -0.0251    0.0000 H       1  UNL1        0.0561
     45 H          15.4579   -0.0251    0.0000 H       1  UNL1        0.0561
     46 H           7.5947    0.9749    0.0000 H       1  UNL1        0.0266
     47 H           6.7976    0.9749    0.0000 H       1  UNL1        0.0266
     48 H          12.8598   -1.4750    0.0000 H       1  UNL1        0.0266
     49 H          13.6569   -1.4750    0.0000 H       1  UNL1        0.0266
     50 H           4.1306    0.9749    0.0000 H       1  UNL1        0.0265
     51 H           3.3335    0.9749    0.0000 H       1  UNL1        0.0265
     52 H           7.6636   -0.4749    0.0000 H       1  UNL1        0.0274
     53 H           8.4607   -0.4749    0.0000 H       1  UNL1        0.0274
     54 H          12.7908   -0.0251    0.0000 H       1  UNL1        0.0274
     55 H          11.9938   -0.0251    0.0000 H       1  UNL1        0.0274
     56 H           2.4675   -0.4749    0.0000 H       1  UNL1        0.0263
     57 H           3.2646   -0.4749    0.0000 H       1  UNL1        0.0263
     58 H           9.3267    0.9749    0.0000 H       1  UNL1        0.0397
     59 H           8.5297    0.9749    0.0000 H       1  UNL1        0.0397
     60 H          11.1278   -1.4750    0.0000 H       1  UNL1        0.0397
     61 H          11.9248   -1.4750    0.0000 H       1  UNL1        0.0397
     62 H           2.3100    1.0369    0.0000 H       1  UNL1        0.0230
     63 H           1.4631    0.8100    0.0000 H       1  UNL1        0.0230
     64 H           1.6900   -0.0369    0.0000 H       1  UNL1        0.0230
@<TRIPOS>BOND
     1     1     4    1
     2     1     7    1
     3     2     4    1
     4     2    13    1
     5     3     4    1
     6     3     5    1
     7     3    25    1
     8     3    26    1
     9     4    27    1
    10     5     6    1
    11     5    28    1
    12     5    29    1
    13     6     7    1
    14     6    30    1
    15     6    31    1
    16     7    32    1
    17     7    33    1
    18     8     9    1
    19     8    12    1
    20     8    34    1
    21     8    35    1
    22     9    14    1
    23     9    36    1
    24     9    37    1
    25    10    11    1
    26    10    13    1
    27    10    38    1
    28    10    39    1
    29    11    15    1
    30    11    40    1
    31    11    41    1
    32    12    16    1
    33    12    42    1
    34    12    43    1
    35    13    44    1
    36    13    45    1
    37    14    17    1
    38    14    46    1
    39    14    47    1
    40    15    18    1
    41    15    48    1
    42    15    49    1
    43    16    19    1
    44    16    50    1
    45    16    51    1
    46    17    20    1
    47    17    52    1
    48    17    53    1
    49    18    21    1
    50    18    54    1
    51    18    55    1
    52    19    22    1
    53    19    56    1
    54    19    57    1
    55    20    23    1
    56    20    58    1
    57    20    59    1
    58    21    24    1
    59    21    60    1
    60    21    61    1
    61    22    62    1
    62    22    63    1
    63    22    64    1
    64    23    24    3
