@<TRIPOS>MOLECULE
IMPHY012423
 35 37 0 0 0
SMALL
GASTEIGER

@<TRIPOS>ATOM
      1 O           6.3981   -1.2239    0.0000 O.3     1  UNL1       -0.4556
      2 O           7.7641   -1.5899    0.0000 O.3     1  UNL1       -0.3514
      3 O           6.3981    1.7761    0.0000 O.2     1  UNL1       -0.2916
      4 O           4.6497    1.8107    0.0000 O.3     1  UNL1       -0.5058
      5 O           2.8680   -1.2481    0.0000 O.3     1  UNL1       -0.4949
      6 C           7.2641   -0.7239    0.0000 C.3     1  UNL1        0.2440
      7 C           7.2641    0.2761    0.0000 C.3     1  UNL1        0.0808
      8 C           8.2641   -0.7239    0.0000 C.ar    1  UNL1        0.0236
      9 C           5.5320    0.2761    0.0000 C.ar    1  UNL1        0.1009
     10 C           6.3981    0.7761    0.0000 C.2     1  UNL1        0.1768
     11 C           5.5320   -0.7239    0.0000 C.ar    1  UNL1        0.1420
     12 C           4.6381    0.8108    0.0000 C.ar    1  UNL1        0.1343
     13 C           4.6381   -1.2586    0.0000 C.ar    1  UNL1        0.0228
     14 C           8.7641   -1.5899    0.0000 C.ar    1  UNL1       -0.0524
     15 C           8.7641    0.1421    0.0000 C.ar    1  UNL1       -0.0524
     16 C           3.7320   -0.7447    0.0000 C.ar    1  UNL1        0.1271
     17 C           3.7320    0.2969    0.0000 C.ar    1  UNL1        0.0225
     18 C           9.7641   -1.5899    0.0000 C.ar    1  UNL1       -0.0613
     19 C           9.7641    0.1421    0.0000 C.ar    1  UNL1       -0.0613
     20 C          10.2641   -0.7239    0.0000 C.ar    1  UNL1       -0.0617
     21 C           2.0000   -0.7514    0.0000 C.3     1  UNL1        0.0788
     22 H           7.8747    0.1684    0.0000 H       1  UNL1        0.0413
     23 H           7.4762    0.8587    0.0000 H       1  UNL1        0.0413
     24 H           4.6453   -1.8785    0.0000 H       1  UNL1        0.0691
     25 H           8.4541   -2.1269    0.0000 H       1  UNL1        0.0622
     26 H           8.4541    0.6791    0.0000 H       1  UNL1        0.0622
     27 H           7.4541   -2.1269    0.0000 H       1  UNL1        0.2142
     28 H           3.1963    0.6090    0.0000 H       1  UNL1        0.0691
     29 H          10.0741   -2.1269    0.0000 H       1  UNL1        0.0618
     30 H          10.0741    0.6791    0.0000 H       1  UNL1        0.0618
     31 H          10.8841   -0.7239    0.0000 H       1  UNL1        0.0618
     32 H           4.1164    2.1269    0.0000 H       1  UNL1        0.2922
     33 H           2.3079   -0.2133    0.0000 H       1  UNL1        0.0660
     34 H           1.4619   -0.4435    0.0000 H       1  UNL1        0.0660
     35 H           1.6921   -1.2895    0.0000 H       1  UNL1        0.0660
@<TRIPOS>BOND
     1     1     6    1
     2     1    11    1
     3     2     6    1
     4     2    27    1
     5     3    10    2
     6     4    12    1
     7     4    32    1
     8     5    16    1
     9     5    21    1
    10     6     7    1
    11     6     8    1
    12     7    10    1
    13     7    22    1
    14     7    23    1
    15     8    14   ar
    16     8    15   ar
    17     9    10    1
    18     9    11   ar
    19     9    12   ar
    20    11    13   ar
    21    12    17   ar
    22    13    16   ar
    23    13    24    1
    24    14    18   ar
    25    14    25    1
    26    15    19   ar
    27    15    26    1
    28    16    17   ar
    29    17    28    1
    30    18    20   ar
    31    18    29    1
    32    19    20   ar
    33    19    30    1
    34    20    31    1
    35    21    33    1
    36    21    34    1
    37    21    35    1
