@<TRIPOS>MOLECULE
IMPHY001022
 37 39 0 0 0
SMALL
GASTEIGER

@<TRIPOS>ATOM
      1 O           9.4377   -0.8290    0.0000 O.3     1  UNL1       -0.3578
      2 O           4.3213    0.0822    0.0000 O.3     1  UNL1       -0.4115
      3 O           3.9547    1.7750    0.0000 O.2     1  UNL1       -0.2260
      4 N           8.3260    0.7085    0.0000 N.pl3   1  UNL1       -0.3068
      5 N           2.6720    0.6111    0.0000 N.am    1  UNL1       -0.2839
      6 C           7.8260   -0.8304    0.0000 C.3     1  UNL1        0.0397
      7 C           8.6350   -0.2426    0.0000 C.3     1  UNL1        0.1343
      8 C           8.1357   -1.7750    0.0000 C.3     1  UNL1       -0.0160
      9 C           7.0170   -0.2426    0.0000 C.ar    1  UNL1       -0.0128
     10 C           9.1297   -1.7741    0.0000 C.3     1  UNL1        0.0509
     11 C           7.3260    0.7085    0.0000 C.ar    1  UNL1        0.0354
     12 C           7.0170   -1.4181    0.0000 C.3     1  UNL1       -0.0515
     13 C           6.0016   -0.4748    0.0000 C.ar    1  UNL1       -0.0136
     14 C           8.9138    1.5175    0.0000 C.3     1  UNL1        0.0031
     15 C           6.6410    1.4932    0.0000 C.ar    1  UNL1       -0.0368
     16 C           5.2987    0.2939    0.0000 C.ar    1  UNL1        0.1336
     17 C           5.6205    1.2845    0.0000 C.ar    1  UNL1       -0.0174
     18 C           3.6493    0.8227    0.0000 C.2     1  UNL1        0.4053
     19 C           2.0000    1.3516    0.0000 C.3     1  UNL1        0.0032
     20 H           9.3234    0.2562    0.0000 H       1  UNL1        0.0818
     21 H           7.5295   -1.9051    0.0000 H       1  UNL1        0.0297
     22 H           8.2014   -2.3915    0.0000 H       1  UNL1        0.0297
     23 H           9.0651   -2.3908    0.0000 H       1  UNL1        0.0561
     24 H           9.7362   -1.9032    0.0000 H       1  UNL1        0.0561
     25 H           6.6526   -0.9166    0.0000 H       1  UNL1        0.0240
     26 H           6.5154   -1.7826    0.0000 H       1  UNL1        0.0240
     27 H           7.3814   -1.9197    0.0000 H       1  UNL1        0.0240
     28 H           5.8168   -1.0667    0.0000 H       1  UNL1        0.0658
     29 H           9.4154    1.1531    0.0000 H       1  UNL1        0.0428
     30 H           9.2782    2.0191    0.0000 H       1  UNL1        0.0428
     31 H           8.4122    1.8819    0.0000 H       1  UNL1        0.0428
     32 H           6.8394    2.0806    0.0000 H       1  UNL1        0.0637
     33 H           5.2075    1.7469    0.0000 H       1  UNL1        0.0655
     34 H           2.4827    0.0207    0.0000 H       1  UNL1        0.1517
     35 H           2.4592    1.7683    0.0000 H       1  UNL1        0.0427
     36 H           1.5834    1.8108    0.0000 H       1  UNL1        0.0427
     37 H           1.5408    0.9350    0.0000 H       1  UNL1        0.0427
@<TRIPOS>BOND
     1     1     7    1
     2     1    10    1
     3     2    16    1
     4     2    18    1
     5     3    18    2
     6     4     7    1
     7     4    11    1
     8     4    14    1
     9     5    18   am
    10     5    19    1
    11     5    34    1
    12     6     7    1
    13     6     8    1
    14     6     9    1
    15     6    12    1
    16     7    20    1
    17     8    10    1
    18     8    21    1
    19     8    22    1
    20     9    11   ar
    21     9    13   ar
    22    10    23    1
    23    10    24    1
    24    11    15   ar
    25    12    25    1
    26    12    26    1
    27    12    27    1
    28    13    16   ar
    29    13    28    1
    30    14    29    1
    31    14    30    1
    32    14    31    1
    33    15    17   ar
    34    15    32    1
    35    16    17   ar
    36    17    33    1
    37    19    35    1
    38    19    36    1
    39    19    37    1
