@<TRIPOS>MOLECULE
IMPHY008989
 16 17 0 0 0
SMALL
GASTEIGER

@<TRIPOS>ATOM
      1 O           2.3602   -1.0454    0.0000 O.2     1  UNL1       -0.2870
      2 C           6.7251   -3.5673    0.0000 C.3     1  UNL1        0.0194
      3 C           8.2231   -4.4618    0.0000 C.3     1  UNL1        0.0038
      4 C           6.7251   -1.8860    0.0000 C.2     1  UNL1       -0.0414
      5 C           9.7535   -3.5996    0.0000 C.3     1  UNL1        0.0006
      6 C           5.2701   -4.4079    0.0000 C.3     1  UNL1        0.0327
      7 C           8.2231   -0.9915    0.0000 C.3     1  UNL1        0.0221
      8 C           9.7535   -1.8537    0.0000 C.3     1  UNL1        0.0044
      9 C           6.7251   -5.2486    0.0000 C.3     1  UNL1        0.0044
     10 C           8.2124   -6.1431    0.0000 C.3     1  UNL1        0.0003
     11 C           3.8152   -3.5673    0.0000 C.2     1  UNL1        0.0092
     12 C           5.2701   -1.0454    0.0000 C.2     1  UNL1        0.0332
     13 C           3.8152   -1.8860    0.0000 C.2     1  UNL1        0.1905
     14 C           2.3602   -4.4079    0.0000 C.2     1  UNL1       -0.0445
     15 C           0.9053   -3.5673    0.0000 C.3     1  UNL1        0.0261
     16 C           2.3602   -6.0892    0.0000 C.3     1  UNL1        0.0261
@<TRIPOS>BOND
     1     1    13    2
     2     2     3    1
     3     2     4    1
     4     2     6    1
     5     2     9    1
     6     3     5    1
     7     3    10    1
     8     4     7    1
     9     4    12    2
    10     5     8    1
    11     6    11    1
    12     7     8    1
    13    11    13    1
    14    11    14    2
    15    12    13    1
    16    14    15    1
    17    14    16    1
