@<TRIPOS>MOLECULE
IMPHY000901
 38 39 0 0 0
SMALL
GASTEIGER

@<TRIPOS>ATOM
      1 O           5.1350   -0.2694    0.0000 O.3     1  UNL1       -0.3405
      2 O           6.8671   -0.2694    0.0000 O.3     1  UNL1       -0.3214
      3 O           6.8671   -2.2694    0.0000 O.3     1  UNL1       -0.3841
      4 O           5.1350   -3.2694    0.0000 O.3     1  UNL1       -0.3864
      5 O           3.4030   -2.2694    0.0000 O.3     1  UNL1       -0.3865
      6 O           8.1271    1.9906    0.0000 O.3     1  UNL1       -0.3846
      7 O           6.3671    3.2694    0.0000 O.3     1  UNL1       -0.3851
      8 O           2.5369   -0.7694    0.0000 O.3     1  UNL1       -0.3924
      9 N           8.7692    0.1125    0.0000 N.1     1  UNL1       -0.1931
     10 C           6.0010   -1.7694    0.0000 C.3     1  UNL1        0.1342
     11 C           5.1350   -2.2694    0.0000 C.3     1  UNL1        0.1141
     12 C           6.0010   -0.7694    0.0000 C.3     1  UNL1        0.1902
     13 C           4.2690   -1.7694    0.0000 C.3     1  UNL1        0.1119
     14 C           4.2690   -0.7694    0.0000 C.3     1  UNL1        0.1130
     15 C           6.8671    0.7306    0.0000 C.3     1  UNL1        0.2044
     16 C           7.1761    1.6816    0.0000 C.3     1  UNL1        0.1303
     17 C           6.3671    2.2694    0.0000 C.3     1  UNL1        0.1034
     18 C           5.8671    0.7306    0.0000 C.2     1  UNL1       -0.0373
     19 C           3.4030   -0.2694    0.0000 C.3     1  UNL1        0.0730
     20 C           5.5580    1.6816    0.0000 C.2     1  UNL1       -0.0535
     21 C           7.8181    0.4216    0.0000 C.1     1  UNL1        0.1048
     22 H           6.0010   -2.3894    0.0000 H       1  UNL1        0.0671
     23 H           4.5981   -2.5794    0.0000 H       1  UNL1        0.0648
     24 H           6.0010   -0.1494    0.0000 H       1  UNL1        0.0938
     25 H           3.7320   -1.4594    0.0000 H       1  UNL1        0.0647
     26 H           4.2690   -0.1494    0.0000 H       1  UNL1        0.0647
     27 H           7.6145    1.2432    0.0000 H       1  UNL1        0.0666
     28 H           6.9195    2.5509    0.0000 H       1  UNL1        0.0665
     29 H           5.5026    0.2290    0.0000 H       1  UNL1        0.0609
     30 H           3.8015    0.2055    0.0000 H       1  UNL1        0.0584
     31 H           3.0044    0.2055    0.0000 H       1  UNL1        0.0584
     32 H           4.9684    1.8732    0.0000 H       1  UNL1        0.0596
     33 H           6.8671   -2.8894    0.0000 H       1  UNL1        0.2101
     34 H           4.5981   -3.5794    0.0000 H       1  UNL1        0.2100
     35 H           3.4030   -2.8894    0.0000 H       1  UNL1        0.2100
     36 H           8.2560    2.5971    0.0000 H       1  UNL1        0.2101
     37 H           5.8301    3.5794    0.0000 H       1  UNL1        0.2103
     38 H           2.0000   -0.4594    0.0000 H       1  UNL1        0.2095
@<TRIPOS>BOND
     1     1    12    1
     2     1    14    1
     3    12     2    1
     4    15     2    1
     5    10     3    1
     6     3    33    1
     7    11     4    1
     8     4    34    1
     9    13     5    1
    10     5    35    1
    11    16     6    1
    12     6    36    1
    13    17     7    1
    14     7    37    1
    15     8    19    1
    16     8    38    1
    17     9    21    3
    18    10    11    1
    19    10    12    1
    20    10    22    1
    21    11    13    1
    22    11    23    1
    23    12    24    1
    24    13    14    1
    25    13    25    1
    26    14    19    1
    27    14    26    1
    28    15    16    1
    29    15    18    1
    30    15    21    1
    31    16    17    1
    32    16    27    1
    33    17    20    1
    34    17    28    1
    35    18    20    2
    36    18    29    1
    37    19    30    1
    38    19    31    1
    39    20    32    1
