@<TRIPOS>MOLECULE
IMPHY012695
 58 60 0 0 0
SMALL
GASTEIGER

@<TRIPOS>ATOM
      1 O           6.3981   -1.4777    0.0000 O.3     1  UNL1       -0.4804
      2 O           8.1465    1.5569    0.0000 O.3     1  UNL1       -0.5055
      3 O           9.9282   -1.5019    0.0000 O.3     1  UNL1       -0.5051
      4 O           9.0067   -3.0223    0.0000 O.2     1  UNL1       -0.2955
      5 O          10.7961    0.0498    0.0000 O.2     1  UNL1       -0.2955
      6 C           5.5320    0.0223    0.0000 C.3     1  UNL1        0.0099
      7 C           5.5320   -0.9777    0.0000 C.3     1  UNL1        0.1294
      8 C           6.3981    0.5223    0.0000 C.3     1  UNL1       -0.0019
      9 C           4.6381    0.5569    0.0000 C.3     1  UNL1       -0.0392
     10 C           3.7320    0.0431    0.0000 C.3     1  UNL1       -0.0200
     11 C           6.3981    1.5223    0.0000 C.3     1  UNL1       -0.0432
     12 C           7.2641    0.0223    0.0000 C.ar    1  UNL1        0.0407
     13 C           4.6381   -1.5124    0.0000 C.2     1  UNL1       -0.0447
     14 C           2.8680    0.5464    0.0000 C.3     1  UNL1       -0.0404
     15 C           3.7320   -0.9985    0.0000 C.2     1  UNL1       -0.0809
     16 C           5.5320   -1.9777    0.0000 C.3     1  UNL1       -0.0209
     17 C           7.2641   -0.9777    0.0000 C.ar    1  UNL1        0.1424
     18 C           5.5320    2.0223    0.0000 C.3     1  UNL1       -0.0462
     19 C           8.1580    0.5569    0.0000 C.ar    1  UNL1        0.1375
     20 C           2.0000    0.0498    0.0000 C.3     1  UNL1       -0.0621
     21 C           2.8718    1.5464    0.0000 C.3     1  UNL1       -0.0621
     22 C           8.1580   -1.5124    0.0000 C.ar    1  UNL1        0.0983
     23 C           5.5320    3.0223    0.0000 C.3     1  UNL1       -0.0626
     24 C           4.6660    1.5223    0.0000 C.3     1  UNL1       -0.0626
     25 C           9.0641    0.0431    0.0000 C.ar    1  UNL1        0.0980
     26 C           9.0641   -0.9985    0.0000 C.ar    1  UNL1        0.1443
     27 C           8.1465   -2.5123    0.0000 C.2     1  UNL1        0.1573
     28 C           9.9282    0.5464    0.0000 C.2     1  UNL1        0.1573
     29 H           5.5368    0.6423    0.0000 H       1  UNL1        0.0349
     30 H           6.9350    0.8323    0.0000 H       1  UNL1        0.0355
     31 H           5.0427    1.0267    0.0000 H       1  UNL1        0.0275
     32 H           4.2445    1.0360    0.0000 H       1  UNL1        0.0275
     33 H           3.7356    0.6631    0.0000 H       1  UNL1        0.0346
     34 H           7.0086    1.4146    0.0000 H       1  UNL1        0.0274
     35 H           6.6101    2.1049    0.0000 H       1  UNL1        0.0274
     36 H           4.6453   -2.1323    0.0000 H       1  UNL1        0.0608
     37 H           2.3322    0.8585    0.0000 H       1  UNL1        0.0301
     38 H           3.1963   -1.3106    0.0000 H       1  UNL1        0.0573
     39 H           4.9120   -1.9777    0.0000 H       1  UNL1        0.0271
     40 H           5.5320   -2.5977    0.0000 H       1  UNL1        0.0271
     41 H           6.1520   -1.9777    0.0000 H       1  UNL1        0.0271
     42 H           5.5320    1.4023    0.0000 H       1  UNL1        0.0296
     43 H           1.6921    0.5879    0.0000 H       1  UNL1        0.0233
     44 H           1.4619   -0.2581    0.0000 H       1  UNL1        0.0233
     45 H           2.3079   -0.4883    0.0000 H       1  UNL1        0.0233
     46 H           3.4918    1.5440    0.0000 H       1  UNL1        0.0233
     47 H           2.8742    2.1664    0.0000 H       1  UNL1        0.0233
     48 H           2.2518    1.5488    0.0000 H       1  UNL1        0.0233
     49 H           6.1520    3.0223    0.0000 H       1  UNL1        0.0232
     50 H           5.5320    3.6423    0.0000 H       1  UNL1        0.0232
     51 H           4.9120    3.0223    0.0000 H       1  UNL1        0.0232
     52 H           4.3560    2.0592    0.0000 H       1  UNL1        0.0232
     53 H           4.1291    1.2123    0.0000 H       1  UNL1        0.0232
     54 H           4.9760    0.9854    0.0000 H       1  UNL1        0.0232
     55 H           8.6798    1.8731    0.0000 H       1  UNL1        0.2922
     56 H           7.6060   -2.8161    0.0000 H       1  UNL1        0.1084
     57 H           9.9258    1.1664    0.0000 H       1  UNL1        0.1084
     58 H          10.4663   -1.1939    0.0000 H       1  UNL1        0.2922
@<TRIPOS>BOND
     1     1     7    1
     2     1    17    1
     3     2    19    1
     4     2    55    1
     5     3    26    1
     6     3    58    1
     7     4    27    2
     8     5    28    2
     9     6     7    1
    10     6     8    1
    11     6     9    1
    12     6    29    1
    13     7    13    1
    14     7    16    1
    15     8    11    1
    16     8    12    1
    17     8    30    1
    18     9    10    1
    19     9    31    1
    20     9    32    1
    21    10    14    1
    22    10    15    1
    23    10    33    1
    24    11    18    1
    25    11    34    1
    26    11    35    1
    27    12    17   ar
    28    12    19   ar
    29    13    15    2
    30    13    36    1
    31    14    20    1
    32    14    21    1
    33    14    37    1
    34    15    38    1
    35    16    39    1
    36    16    40    1
    37    16    41    1
    38    17    22   ar
    39    18    23    1
    40    18    24    1
    41    18    42    1
    42    19    25   ar
    43    20    43    1
    44    20    44    1
    45    20    45    1
    46    21    46    1
    47    21    47    1
    48    21    48    1
    49    22    26   ar
    50    22    27    1
    51    23    49    1
    52    23    50    1
    53    23    51    1
    54    24    52    1
    55    24    53    1
    56    24    54    1
    57    25    26   ar
    58    25    28    1
    59    27    56    1
    60    28    57    1
