@<TRIPOS>MOLECULE
IMPHY001589
 85 89 0 0 0
SMALL
GASTEIGER

@<TRIPOS>ATOM
      1 O           5.7726   -3.1206    0.0000 O.3     1  UNL1       -0.3911
      2 O          11.1246    3.0930    0.0000 O.3     1  UNL1       -0.3912
      3 O           2.1236   -2.1037    0.0000 O.3     1  UNL1       -0.3912
      4 O           3.9891   -3.0931    0.0000 O.3     1  UNL1       -0.3944
      5 O          11.7572    0.6329    0.0000 O.3     1  UNL1       -0.3944
      6 C           7.5167   -0.0513    0.0000 C.3     1  UNL1       -0.0193
      7 C           7.5167    0.9487    0.0000 C.3     1  UNL1       -0.0257
      8 C           8.4106    1.4833    0.0000 C.3     1  UNL1       -0.0249
      9 C           6.6507   -0.5513    0.0000 C.3     1  UNL1       -0.0028
     10 C           9.3167    0.9695    0.0000 C.3     1  UNL1       -0.0255
     11 C           8.4106   -0.5860    0.0000 C.3     1  UNL1       -0.0463
     12 C           5.7847   -0.0513    0.0000 C.2     1  UNL1       -0.0631
     13 C           4.8746   -0.5582    0.0000 C.3     1  UNL1       -0.0086
     14 C           4.8666   -1.5998    0.0000 C.3     1  UNL1        0.0286
     15 C           9.3167   -0.0722    0.0000 C.3     1  UNL1       -0.0485
     16 C          10.2605    1.5047    0.0000 C.3     1  UNL1        0.0203
     17 C           6.6667   -1.5928    0.0000 C.3     1  UNL1       -0.0166
     18 C           6.6507    1.4487    0.0000 C.3     1  UNL1       -0.0306
     19 C           8.3856    2.5680    0.0000 C.3     1  UNL1       -0.0447
     20 C           5.7687   -2.1206    0.0000 C.3     1  UNL1        0.0644
     21 C           7.8588   -0.9910    0.0000 C.3     1  UNL1       -0.0585
     22 C           5.7847    0.9487    0.0000 C.2     1  UNL1       -0.0836
     23 C          10.2605    2.5897    0.0000 C.3     1  UNL1        0.0630
     24 C           7.5408    1.9766    0.0000 C.3     1  UNL1       -0.0590
     25 C           7.2935   -1.3174    0.0000 C.3     1  UNL1       -0.0552
     26 C           3.9478    0.0059    0.0000 C.3     1  UNL1       -0.0383
     27 C           9.3167    3.1250    0.0000 C.3     1  UNL1       -0.0257
     28 C           3.9312   -2.1495    0.0000 C.3     1  UNL1       -0.0157
     29 C           2.9999   -0.5220    0.0000 C.3     1  UNL1       -0.0083
     30 C           2.9916   -1.6070    0.0000 C.3     1  UNL1        0.0610
     31 C           4.8589   -2.5997    0.0000 C.3     1  UNL1        0.0528
     32 C          11.2605    1.5009    0.0000 C.3     1  UNL1        0.0522
     33 C          10.7572    0.6368    0.0000 C.3     1  UNL1       -0.0548
     34 C           2.0000   -0.5105    0.0000 C.3     1  UNL1       -0.0574
     35 C           2.5100    0.3497    0.0000 C.3     1  UNL1       -0.0574
     36 H           8.2561    0.5294    0.0000 H       1  UNL1        0.0315
     37 H          10.0512    0.5416    0.0000 H       1  UNL1        0.0313
     38 H           8.0060   -1.0558    0.0000 H       1  UNL1        0.0271
     39 H           8.8043   -1.0650    0.0000 H       1  UNL1        0.0271
     40 H           4.8910    0.2917    0.0000 H       1  UNL1        0.0353
     41 H           9.5258   -0.6558    0.0000 H       1  UNL1        0.0268
     42 H           9.9276    0.0339    0.0000 H       1  UNL1        0.0268
     43 H           6.8848   -2.1732    0.0000 H       1  UNL1        0.0299
     44 H           7.2759   -1.4773    0.0000 H       1  UNL1        0.0299
     45 H           7.0492    1.9236    0.0000 H       1  UNL1        0.0310
     46 H           6.2522    1.9236    0.0000 H       1  UNL1        0.0310
     47 H           8.1631    3.1467    0.0000 H       1  UNL1        0.0271
     48 H           7.7773    2.4478    0.0000 H       1  UNL1        0.0271
     49 H           6.3074   -2.4275    0.0000 H       1  UNL1        0.0600
     50 H           7.2762   -1.2031    0.0000 H       1  UNL1        0.0235
     51 H           8.0709   -1.5736    0.0000 H       1  UNL1        0.0235
     52 H           8.4414   -0.7789    0.0000 H       1  UNL1        0.0235
     53 H           5.2477    1.2587    0.0000 H       1  UNL1        0.0572
     54 H          10.2569    3.2097    0.0000 H       1  UNL1        0.0599
     55 H           7.8466    2.5159    0.0000 H       1  UNL1        0.0235
     56 H           7.0015    2.2825    0.0000 H       1  UNL1        0.0235
     57 H           7.2349    1.4373    0.0000 H       1  UNL1        0.0235
     58 H           6.8185   -1.7159    0.0000 H       1  UNL1        0.0238
     59 H           7.6920   -1.7923    0.0000 H       1  UNL1        0.0238
     60 H           7.7684   -0.9189    0.0000 H       1  UNL1        0.0238
     61 H           4.3560    0.4726    0.0000 H       1  UNL1        0.0277
     62 H           3.5579    0.4879    0.0000 H       1  UNL1        0.0277
     63 H           9.7103    3.6040    0.0000 H       1  UNL1        0.0290
     64 H           8.9121    3.5947    0.0000 H       1  UNL1        0.0290
     65 H           3.5339   -2.6255    0.0000 H       1  UNL1        0.0297
     66 H           4.3322   -2.6224    0.0000 H       1  UNL1        0.0297
     67 H           2.4564   -1.2939    0.0000 H       1  UNL1        0.0599
     68 H           5.0665   -3.1840    0.0000 H       1  UNL1        0.0564
     69 H           5.4703   -2.4968    0.0000 H       1  UNL1        0.0564
     70 H          11.8439    1.7107    0.0000 H       1  UNL1        0.0563
     71 H          11.1552    2.1118    0.0000 H       1  UNL1        0.0563
     72 H          10.2190    0.3288    0.0000 H       1  UNL1        0.0237
     73 H          11.0651    0.0986    0.0000 H       1  UNL1        0.0237
     74 H          11.2953    0.9447    0.0000 H       1  UNL1        0.0237
     75 H           6.3107   -3.4285    0.0000 H       1  UNL1        0.2098
     76 H           2.0072    0.1095    0.0000 H       1  UNL1        0.0236
     77 H           1.3800   -0.5033    0.0000 H       1  UNL1        0.0236
     78 H           1.9928   -1.1304    0.0000 H       1  UNL1        0.0236
     79 H           3.0505    0.6535    0.0000 H       1  UNL1        0.0236
     80 H           2.2062    0.8902    0.0000 H       1  UNL1        0.0236
     81 H           1.9695    0.0459    0.0000 H       1  UNL1        0.0236
     82 H          11.1222    3.7130    0.0000 H       1  UNL1        0.2098
     83 H           2.1212   -2.7237    0.0000 H       1  UNL1        0.2098
     84 H           3.9843   -3.7130    0.0000 H       1  UNL1        0.2094
     85 H          12.3771    0.6305    0.0000 H       1  UNL1        0.2094
@<TRIPOS>BOND
     1    20     1    1
     2     1    75    1
     3    23     2    1
     4     2    82    1
     5    30     3    1
     6     3    83    1
     7     4    31    1
     8     4    84    1
     9     5    32    1
    10     5    85    1
    11     6     7    1
    12     6     9    1
    13     6    11    1
    14     6    21    1
    15     7     8    1
    16     7    18    1
    17     7    36    1
    18     8    10    1
    19     8    19    1
    20     8    24    1
    21     9    12    1
    22     9    17    1
    23     9    25    1
    24    10    15    1
    25    10    16    1
    26    10    37    1
    27    11    15    1
    28    11    38    1
    29    11    39    1
    30    12    13    1
    31    12    22    2
    32    13    14    1
    33    13    26    1
    34    13    40    1
    35    14    20    1
    36    14    28    1
    37    14    31    1
    38    15    41    1
    39    15    42    1
    40    16    23    1
    41    16    32    1
    42    16    33    1
    43    17    20    1
    44    17    43    1
    45    17    44    1
    46    18    22    1
    47    18    45    1
    48    18    46    1
    49    19    27    1
    50    19    47    1
    51    19    48    1
    52    20    49    1
    53    21    50    1
    54    21    51    1
    55    21    52    1
    56    22    53    1
    57    23    27    1
    58    23    54    1
    59    24    55    1
    60    24    56    1
    61    24    57    1
    62    25    58    1
    63    25    59    1
    64    25    60    1
    65    26    29    1
    66    26    61    1
    67    26    62    1
    68    27    63    1
    69    27    64    1
    70    28    30    1
    71    28    65    1
    72    28    66    1
    73    29    30    1
    74    29    34    1
    75    29    35    1
    76    30    67    1
    77    31    68    1
    78    31    69    1
    79    32    70    1
    80    32    71    1
    81    33    72    1
    82    33    73    1
    83    33    74    1
    84    34    76    1
    85    34    77    1
    86    34    78    1
    87    35    79    1
    88    35    80    1
    89    35    81    1
