@<TRIPOS>MOLECULE
IMPHY006005
 29 30 0 0 0
SMALL
GASTEIGER

@<TRIPOS>ATOM
      1 O           3.7320    0.2500    0.0000 O.3     1  UNL1       -0.3706
      2 C           2.8660   -0.2500    0.0000 C.3     1  UNL1        0.0731
      3 C           3.7320    1.2500    0.0000 C.3     1  UNL1        0.0731
      4 C           2.8660   -1.2500    0.0000 C.ar    1  UNL1       -0.0219
      5 C           4.5981    1.7500    0.0000 C.ar    1  UNL1       -0.0219
      6 C           2.0000   -1.7500    0.0000 C.ar    1  UNL1       -0.0564
      7 C           5.4641    1.2500    0.0000 C.ar    1  UNL1       -0.0564
      8 C           3.7320   -1.7500    0.0000 C.ar    1  UNL1       -0.0564
      9 C           4.5981    2.7500    0.0000 C.ar    1  UNL1       -0.0564
     10 C           2.0000   -2.7500    0.0000 C.ar    1  UNL1       -0.0614
     11 C           6.3301    1.7500    0.0000 C.ar    1  UNL1       -0.0614
     12 C           3.7320   -2.7500    0.0000 C.ar    1  UNL1       -0.0614
     13 C           5.4641    3.2500    0.0000 C.ar    1  UNL1       -0.0614
     14 C           2.8660   -3.2500    0.0000 C.ar    1  UNL1       -0.0617
     15 C           6.3301    2.7500    0.0000 C.ar    1  UNL1       -0.0617
     16 H           2.6540    0.3326    0.0000 H       1  UNL1        0.0610
     17 H           2.2554   -0.3577    0.0000 H       1  UNL1        0.0610
     18 H           3.5200    1.8326    0.0000 H       1  UNL1        0.0610
     19 H           3.1215    1.1423    0.0000 H       1  UNL1        0.0610
     20 H           1.4631   -1.4400    0.0000 H       1  UNL1        0.0621
     21 H           5.4641    0.6300    0.0000 H       1  UNL1        0.0621
     22 H           4.2690   -1.4400    0.0000 H       1  UNL1        0.0621
     23 H           4.0611    3.0600    0.0000 H       1  UNL1        0.0621
     24 H           1.4631   -3.0600    0.0000 H       1  UNL1        0.0618
     25 H           6.8671    1.4400    0.0000 H       1  UNL1        0.0618
     26 H           4.2690   -3.0600    0.0000 H       1  UNL1        0.0618
     27 H           5.4641    3.8700    0.0000 H       1  UNL1        0.0618
     28 H           2.8660   -3.8700    0.0000 H       1  UNL1        0.0618
     29 H           6.8671    3.0600    0.0000 H       1  UNL1        0.0618
@<TRIPOS>BOND
     1     1     2    1
     2     1     3    1
     3     2     4    1
     4     2    16    1
     5     2    17    1
     6     3     5    1
     7     3    18    1
     8     3    19    1
     9     4     6   ar
    10     4     8   ar
    11     5     7   ar
    12     5     9   ar
    13     6    10   ar
    14     6    20    1
    15     7    11   ar
    16     7    21    1
    17     8    12   ar
    18     8    22    1
    19     9    13   ar
    20     9    23    1
    21    10    14   ar
    22    10    24    1
    23    11    15   ar
    24    11    25    1
    25    12    14   ar
    26    12    26    1
    27    13    15   ar
    28    13    27    1
    29    14    28    1
    30    15    29    1
