@<TRIPOS>MOLECULE
IMPHY013343
 103 107 0 0 0
SMALL
GASTEIGER

@<TRIPOS>ATOM
      1 O          10.6603   -2.8450    0.0000 O.3     1  UNL1       -0.3389
      2 O          10.6603    0.1550    0.0000 O.3     1  UNL1       -0.3394
      3 O          12.3923   -2.8450    0.0000 O.3     1  UNL1       -0.3431
      4 O           8.9282   -1.8450    0.0000 O.3     1  UNL1       -0.4528
      5 O          12.3923    0.1550    0.0000 O.3     1  UNL1       -0.3484
      6 O          12.3923   -1.8450    0.0000 O.3     1  UNL1       -0.3841
      7 O           8.9282    1.1550    0.0000 O.3     1  UNL1       -0.3460
      8 O          10.6603   -4.8450    0.0000 O.3     1  UNL1       -0.3841
      9 O          12.3923   -5.8450    0.0000 O.3     1  UNL1       -0.3864
     10 O          14.1244   -4.8450    0.0000 O.3     1  UNL1       -0.3866
     11 O           7.1962    1.1550    0.0000 O.3     1  UNL1       -0.3461
     12 O           8.9282    3.1550    0.0000 O.3     1  UNL1       -0.3841
     13 O           7.1962    4.1550    0.0000 O.3     1  UNL1       -0.3864
     14 O           5.4641    3.1550    0.0000 O.3     1  UNL1       -0.3869
     15 O           8.0622   -0.3450    0.0000 O.2     1  UNL1       -0.2456
     16 O          14.9904    4.6550    0.0000 O.3     1  UNL1       -0.5033
     17 O          13.2583    5.6550    0.0000 O.3     1  UNL1       -0.4915
     18 O           2.8660   -1.3450    0.0000 O.3     1  UNL1       -0.4914
     19 O           2.8660   -3.3450    0.0000 O.3     1  UNL1       -0.5033
     20 C          10.6603   -1.8450    0.0000 C.3     1  UNL1        0.1316
     21 C           9.7942   -1.3450    0.0000 C.3     1  UNL1        0.1602
     22 C           9.7942   -0.3450    0.0000 C.3     1  UNL1        0.1244
     23 C          11.5263   -1.3450    0.0000 C.3     1  UNL1        0.1355
     24 C          11.5263   -0.3450    0.0000 C.3     1  UNL1        0.1880
     25 C          11.5263   -3.3450    0.0000 C.3     1  UNL1        0.1884
     26 C          11.5263   -4.3450    0.0000 C.3     1  UNL1        0.1341
     27 C          12.3923   -4.8450    0.0000 C.3     1  UNL1        0.1140
     28 C          13.2583   -4.3450    0.0000 C.3     1  UNL1        0.1095
     29 C           8.9282    0.1550    0.0000 C.3     1  UNL1        0.0806
     30 C          13.2583   -3.3450    0.0000 C.3     1  UNL1        0.0873
     31 C           8.0622    1.6550    0.0000 C.3     1  UNL1        0.1876
     32 C           8.0622    2.6550    0.0000 C.3     1  UNL1        0.1341
     33 C          14.1244   -2.8450    0.0000 C.3     1  UNL1       -0.0361
     34 C           7.1962    3.1550    0.0000 C.3     1  UNL1        0.1137
     35 C           6.3301    2.6550    0.0000 C.3     1  UNL1        0.1069
     36 C          12.3923    1.1550    0.0000 C.3     1  UNL1        0.0547
     37 C           6.3301    1.6550    0.0000 C.3     1  UNL1        0.0792
     38 C           8.0622   -1.3450    0.0000 C.2     1  UNL1        0.3324
     39 C          13.2583    1.6550    0.0000 C.3     1  UNL1       -0.0039
     40 C           7.1962   -1.8450    0.0000 C.2     1  UNL1        0.0231
     41 C          13.2583    2.6550    0.0000 C.ar    1  UNL1       -0.0415
     42 C           6.3301   -1.3450    0.0000 C.2     1  UNL1       -0.0477
     43 C          14.1244    3.1550    0.0000 C.ar    1  UNL1       -0.0133
     44 C          12.3923    3.1550    0.0000 C.ar    1  UNL1       -0.0548
     45 C          14.1244    4.1550    0.0000 C.ar    1  UNL1        0.1587
     46 C           5.4641   -1.8450    0.0000 C.ar    1  UNL1       -0.0211
     47 C          12.3923    4.1550    0.0000 C.ar    1  UNL1       -0.0161
     48 C          13.2583    4.6550    0.0000 C.ar    1  UNL1        0.1613
     49 C           4.5981   -1.3450    0.0000 C.ar    1  UNL1       -0.0092
     50 C           5.4641   -2.8450    0.0000 C.ar    1  UNL1       -0.0509
     51 C           3.7320   -1.8450    0.0000 C.ar    1  UNL1        0.1618
     52 C           4.5981   -3.3450    0.0000 C.ar    1  UNL1       -0.0160
     53 C           3.7320   -2.8450    0.0000 C.ar    1  UNL1        0.1585
     54 C          12.3923    6.1550    0.0000 C.3     1  UNL1        0.0790
     55 C           2.0000   -1.8450    0.0000 C.3     1  UNL1        0.0790
     56 H          10.6602   -1.0950    0.0000 H       1  UNL1        0.0663
     57 H           9.7943   -2.0950    0.0000 H       1  UNL1        0.0788
     58 H           9.7943    0.4050    0.0000 H       1  UNL1        0.0658
     59 H          12.1758   -0.9700    0.0000 H       1  UNL1        0.0671
     60 H          12.1758   -0.7200    0.0000 H       1  UNL1        0.0937
     61 H          12.1758   -3.7200    0.0000 H       1  UNL1        0.0938
     62 H          12.1758   -3.9700    0.0000 H       1  UNL1        0.0671
     63 H          11.7428   -5.2200    0.0000 H       1  UNL1        0.0648
     64 H          13.2584   -5.0950    0.0000 H       1  UNL1        0.0646
     65 H           8.5532   -0.4945    0.0000 H       1  UNL1        0.0588
     66 H           8.1782    0.1550    0.0000 H       1  UNL1        0.0588
     67 H          13.2584   -2.5950    0.0000 H       1  UNL1        0.0621
     68 H           7.4127    2.0300    0.0000 H       1  UNL1        0.0937
     69 H          13.0418   -2.2200    0.0000 H       1  UNL1        0.2101
     70 H           7.4127    2.2800    0.0000 H       1  UNL1        0.0671
     71 H          14.7739   -3.2200    0.0000 H       1  UNL1        0.0255
     72 H          14.7739   -2.4700    0.0000 H       1  UNL1        0.0255
     73 H          14.1244   -2.0950    0.0000 H       1  UNL1        0.0255
     74 H           7.1961    2.4050    0.0000 H       1  UNL1        0.0647
     75 H          10.0108   -5.2200    0.0000 H       1  UNL1        0.2101
     76 H           6.3302    3.4050    0.0000 H       1  UNL1        0.0643
     77 H          12.3923   -6.5950    0.0000 H       1  UNL1        0.2100
     78 H          11.6423    1.1550    0.0000 H       1  UNL1        0.0564
     79 H          12.0173    1.8045    0.0000 H       1  UNL1        0.0564
     80 H          14.7739   -5.2200    0.0000 H       1  UNL1        0.2100
     81 H           5.9551    1.0055    0.0000 H       1  UNL1        0.0587
     82 H           5.5801    1.6550    0.0000 H       1  UNL1        0.0587
     83 H          14.0083    1.6550    0.0000 H       1  UNL1        0.0335
     84 H          13.6333    1.0055    0.0000 H       1  UNL1        0.0335
     85 H           9.5777    3.5300    0.0000 H       1  UNL1        0.2101
     86 H           7.1962    4.9050    0.0000 H       1  UNL1        0.2100
     87 H           7.1963   -2.5950    0.0000 H       1  UNL1        0.0689
     88 H           4.8146    3.5300    0.0000 H       1  UNL1        0.2100
     89 H           6.3300   -0.5950    0.0000 H       1  UNL1        0.0626
     90 H          14.7739    2.7800    0.0000 H       1  UNL1        0.0658
     91 H          11.7428    2.7800    0.0000 H       1  UNL1        0.0621
     92 H          11.7428    4.5300    0.0000 H       1  UNL1        0.0655
     93 H           4.5982   -0.5950    0.0000 H       1  UNL1        0.0661
     94 H           6.1136   -3.2200    0.0000 H       1  UNL1        0.0625
     95 H          15.6399    5.0300    0.0000 H       1  UNL1        0.2923
     96 H           4.5982   -4.0950    0.0000 H       1  UNL1        0.0655
     97 H          12.3923    6.9050    0.0000 H       1  UNL1        0.0660
     98 H          11.7428    6.5300    0.0000 H       1  UNL1        0.0660
     99 H          11.7428    5.7800    0.0000 H       1  UNL1        0.0660
    100 H           2.2165   -3.7200    0.0000 H       1  UNL1        0.2923
    101 H           1.3505   -1.4700    0.0000 H       1  UNL1        0.0660
    102 H           1.3505   -2.2200    0.0000 H       1  UNL1        0.0660
    103 H           2.0000   -2.5950    0.0000 H       1  UNL1        0.0660
@<TRIPOS>BOND
     1     1    20    1
     2     1    25    1
     3     2    22    1
     4     2    24    1
     5     3    25    1
     6     3    30    1
     7     4    21    1
     8     4    38    1
     9     5    24    1
    10     5    36    1
    11     6    23    1
    12     6    69    1
    13     7    29    1
    14     7    31    1
    15     8    26    1
    16     8    75    1
    17     9    27    1
    18     9    77    1
    19    10    28    1
    20    10    80    1
    21    11    31    1
    22    11    37    1
    23    12    32    1
    24    12    85    1
    25    13    34    1
    26    13    86    1
    27    14    35    1
    28    14    88    1
    29    15    38    2
    30    16    45    1
    31    16    95    1
    32    17    48    1
    33    17    54    1
    34    18    51    1
    35    18    55    1
    36    19    53    1
    37    19   100    1
    38    20    21    1
    39    20    23    1
    40    20    56    1
    41    21    22    1
    42    21    57    1
    43    22    29    1
    44    22    58    1
    45    23    24    1
    46    23    59    1
    47    24    60    1
    48    25    26    1
    49    25    61    1
    50    26    27    1
    51    26    62    1
    52    27    28    1
    53    27    63    1
    54    28    30    1
    55    28    64    1
    56    29    65    1
    57    29    66    1
    58    30    33    1
    59    30    67    1
    60    31    32    1
    61    31    68    1
    62    32    34    1
    63    32    70    1
    64    33    71    1
    65    33    72    1
    66    33    73    1
    67    34    35    1
    68    34    74    1
    69    35    37    1
    70    35    76    1
    71    36    39    1
    72    36    78    1
    73    36    79    1
    74    37    81    1
    75    37    82    1
    76    38    40    1
    77    39    41    1
    78    39    83    1
    79    39    84    1
    80    40    42    2
    81    40    87    1
    82    41    43   ar
    83    41    44   ar
    84    42    46    1
    85    42    89    1
    86    43    45   ar
    87    43    90    1
    88    44    47   ar
    89    44    91    1
    90    45    48   ar
    91    46    49   ar
    92    46    50   ar
    93    47    48   ar
    94    47    92    1
    95    49    51   ar
    96    49    93    1
    97    50    52   ar
    98    50    94    1
    99    51    53   ar
   100    52    53   ar
   101    52    96    1
   102    54    97    1
   103    54    98    1
   104    54    99    1
   105    55   101    1
   106    55   102    1
   107    55   103    1
