@<TRIPOS>MOLECULE
IMPHY005103
 51 53 0 0 0
SMALL
GASTEIGER

@<TRIPOS>ATOM
      1 O           2.5381    2.5121    0.0000 O.3     1  UNL1       -0.4914
      2 O           2.5381    0.4638    0.0000 O.3     1  UNL1       -0.5033
      3 O           2.6042   -0.5121    0.0000 O.3     1  UNL1       -0.5033
      4 O           2.6042   -2.5121    0.0000 O.3     1  UNL1       -0.4915
      5 N           6.9343    0.9879    0.0000 N.4     1  UNL1        0.2449
      6 C           6.0682    0.4879    0.0000 C.3     1  UNL1        0.0107
      7 C           6.9343    1.9879    0.0000 C.3     1  UNL1       -0.0259
      8 C           5.2022    0.9879    0.0000 C.ar    1  UNL1        0.0076
      9 C           6.0682    2.4879    0.0000 C.3     1  UNL1        0.0133
     10 C           6.0682   -0.5121    0.0000 C.3     1  UNL1        0.0201
     11 C           5.2022    1.9879    0.0000 C.ar    1  UNL1       -0.0302
     12 C           7.9343    0.9879    0.0000 C.3     1  UNL1       -0.0409
     13 C           7.4343    0.1219    0.0000 C.3     1  UNL1       -0.0409
     14 C           4.3083    0.4533    0.0000 C.ar    1  UNL1       -0.0078
     15 C           5.2022   -1.0121    0.0000 C.ar    1  UNL1       -0.0380
     16 C           4.3083    2.5226    0.0000 C.ar    1  UNL1       -0.0125
     17 C           3.4022    0.9671    0.0000 C.ar    1  UNL1        0.1589
     18 C           3.4022    2.0087    0.0000 C.ar    1  UNL1        0.1615
     19 C           4.3362   -0.5121    0.0000 C.ar    1  UNL1       -0.0131
     20 C           5.2022   -2.0121    0.0000 C.ar    1  UNL1       -0.0547
     21 C           3.4702   -1.0121    0.0000 C.ar    1  UNL1        0.1587
     22 C           4.3362   -2.5121    0.0000 C.ar    1  UNL1       -0.0160
     23 C           3.4702   -2.0121    0.0000 C.ar    1  UNL1        0.1613
     24 C           2.5420    3.5121    0.0000 C.3     1  UNL1        0.0790
     25 C           2.6042   -3.5121    0.0000 C.3     1  UNL1        0.0790
     26 H           6.6052    0.1779    0.0000 H       1  UNL1        0.0908
     27 H           7.5449    1.8803    0.0000 H       1  UNL1        0.0818
     28 H           7.1463    2.5705    0.0000 H       1  UNL1        0.0818
     29 H           6.4668    2.9629    0.0000 H       1  UNL1        0.0365
     30 H           5.6697    2.9629    0.0000 H       1  UNL1        0.0365
     31 H           6.2803   -1.0947    0.0000 H       1  UNL1        0.0372
     32 H           6.6788   -0.4044    0.0000 H       1  UNL1        0.0372
     33 H           7.9343    0.3679    0.0000 H       1  UNL1        0.0778
     34 H           8.5543    0.9879    0.0000 H       1  UNL1        0.0778
     35 H           6.8973   -0.1881    0.0000 H       1  UNL1        0.0778
     36 H           7.7443   -0.4150    0.0000 H       1  UNL1        0.0778
     37 H           7.9712    0.4319    0.0000 H       1  UNL1        0.0778
     38 H           7.9343    1.6079    0.0000 H       1  UNL1        0.0778
     39 H           4.3154   -0.1667    0.0000 H       1  UNL1        0.0660
     40 H           4.3154    3.1426    0.0000 H       1  UNL1        0.0658
     41 H           4.3362    0.1079    0.0000 H       1  UNL1        0.0658
     42 H           5.7392   -2.3221    0.0000 H       1  UNL1        0.0621
     43 H           4.3362   -3.1321    0.0000 H       1  UNL1        0.0655
     44 H           2.0000    0.7717    0.0000 H       1  UNL1        0.2923
     45 H           3.1620    3.5097    0.0000 H       1  UNL1        0.0660
     46 H           2.5444    4.1321    0.0000 H       1  UNL1        0.0660
     47 H           1.9220    3.5145    0.0000 H       1  UNL1        0.0660
     48 H           2.0672   -0.8221    0.0000 H       1  UNL1        0.2923
     49 H           1.9842   -3.5121    0.0000 H       1  UNL1        0.0660
     50 H           2.6042   -4.1321    0.0000 H       1  UNL1        0.0660
     51 H           3.2242   -3.5121    0.0000 H       1  UNL1        0.0660
@<TRIPOS>UNITY_ATOM_ATTR
5 1
charge 1
@<TRIPOS>BOND
     1     1    18    1
     2     1    24    1
     3     2    17    1
     4     2    44    1
     5     3    21    1
     6     3    48    1
     7     4    23    1
     8     4    25    1
     9     5     6    1
    10     5     7    1
    11     5    12    1
    12     5    13    1
    13     6     8    1
    14     6    10    1
    15     6    26    1
    16     7     9    1
    17     7    27    1
    18     7    28    1
    19     8    11   ar
    20     8    14   ar
    21     9    11    1
    22     9    29    1
    23     9    30    1
    24    10    15    1
    25    10    31    1
    26    10    32    1
    27    11    16   ar
    28    12    33    1
    29    12    34    1
    30    12    38    1
    31    13    35    1
    32    13    36    1
    33    13    37    1
    34    14    17   ar
    35    14    39    1
    36    15    19   ar
    37    15    20   ar
    38    16    18   ar
    39    16    40    1
    40    17    18   ar
    41    19    21   ar
    42    19    41    1
    43    20    22   ar
    44    20    42    1
    45    21    23   ar
    46    22    23   ar
    47    22    43    1
    48    24    45    1
    49    24    46    1
    50    24    47    1
    51    25    49    1
    52    25    50    1
    53    25    51    1
