@<TRIPOS>MOLECULE
IMPHY017001
 22 22 0 0 0
SMALL
GASTEIGER

@<TRIPOS>ATOM
      1 O           3.0000    1.8450    0.0000 O.3     1  UNL1       -0.3845
      2 C           3.0000    0.8450    0.0000 C.3     1  UNL1        0.0854
      3 C           3.0000   -0.1550    0.0000 C.ar    1  UNL1       -0.0167
      4 C           4.0000    0.8450    0.0000 C.3     1  UNL1       -0.0321
      5 C           2.0000    0.8450    0.0000 C.3     1  UNL1       -0.0321
      6 C           2.1340   -0.6550    0.0000 C.ar    1  UNL1       -0.0559
      7 C           3.8660   -0.6550    0.0000 C.ar    1  UNL1       -0.0559
      8 C           2.1340   -1.6550    0.0000 C.ar    1  UNL1       -0.0614
      9 C           3.8660   -1.6550    0.0000 C.ar    1  UNL1       -0.0614
     10 C           3.0000   -2.1550    0.0000 C.ar    1  UNL1       -0.0617
     11 H           4.0000    0.2250    0.0000 H       1  UNL1        0.0260
     12 H           4.6200    0.8450    0.0000 H       1  UNL1        0.0260
     13 H           4.0000    1.4650    0.0000 H       1  UNL1        0.0260
     14 H           2.0000    1.4650    0.0000 H       1  UNL1        0.0260
     15 H           1.3800    0.8450    0.0000 H       1  UNL1        0.0260
     16 H           2.0000    0.2250    0.0000 H       1  UNL1        0.0260
     17 H           1.5970   -0.3450    0.0000 H       1  UNL1        0.0621
     18 H           4.4030   -0.3450    0.0000 H       1  UNL1        0.0621
     19 H           3.5369    2.1550    0.0000 H       1  UNL1        0.2106
     20 H           1.5970   -1.9650    0.0000 H       1  UNL1        0.0618
     21 H           4.4030   -1.9650    0.0000 H       1  UNL1        0.0618
     22 H           3.0000   -2.7750    0.0000 H       1  UNL1        0.0618
@<TRIPOS>BOND
     1     1     2    1
     2     1    19    1
     3     2     3    1
     4     2     4    1
     5     2     5    1
     6     3     6   ar
     7     3     7   ar
     8     4    11    1
     9     4    12    1
    10     4    13    1
    11     5    14    1
    12     5    15    1
    13     5    16    1
    14     6     8   ar
    15     6    17    1
    16     7     9   ar
    17     7    18    1
    18     8    10   ar
    19     8    20    1
    20     9    10   ar
    21     9    21    1
    22    10    22    1
