@<TRIPOS>MOLECULE
IMPHY017350
 36 35 0 0 0
SMALL
GASTEIGER

@<TRIPOS>ATOM
      1 O           2.5369    2.6900    0.0000 O.3     1  UNL1       -0.4806
      2 O           3.4030    1.1900    0.0000 O.2     1  UNL1       -0.2510
      3 C           7.7331   -0.3100    0.0000 C.3     1  UNL1       -0.0528
      4 C           8.5991   -0.8100    0.0000 C.3     1  UNL1       -0.0531
      5 C           7.7331    0.6900    0.0000 C.3     1  UNL1       -0.0496
      6 C           8.5991   -1.8100    0.0000 C.3     1  UNL1       -0.0533
      7 C           6.8671    1.1900    0.0000 C.3     1  UNL1       -0.0348
      8 C           9.4651   -2.3100    0.0000 C.3     1  UNL1       -0.0559
      9 C           6.8671    2.1900    0.0000 C.2     1  UNL1       -0.0879
     10 C           9.4651   -3.3100    0.0000 C.3     1  UNL1       -0.0653
     11 C           6.0010    2.6900    0.0000 C.2     1  UNL1       -0.0874
     12 C           5.1350    2.1900    0.0000 C.3     1  UNL1       -0.0247
     13 C           4.2690    2.6900    0.0000 C.3     1  UNL1        0.0482
     14 C           3.4030    2.1900    0.0000 C.2     1  UNL1        0.3050
     15 H           7.1225   -0.2023    0.0000 H       1  UNL1        0.0265
     16 H           7.5210   -0.8926    0.0000 H       1  UNL1        0.0265
     17 H           9.2097   -0.9177    0.0000 H       1  UNL1        0.0265
     18 H           8.8112   -0.2274    0.0000 H       1  UNL1        0.0265
     19 H           8.3437    0.5823    0.0000 H       1  UNL1        0.0268
     20 H           7.9451    1.2726    0.0000 H       1  UNL1        0.0268
     21 H           7.9885   -1.7023    0.0000 H       1  UNL1        0.0265
     22 H           8.3871   -2.3926    0.0000 H       1  UNL1        0.0265
     23 H           6.2565    1.2977    0.0000 H       1  UNL1        0.0307
     24 H           6.6550    0.6074    0.0000 H       1  UNL1        0.0307
     25 H          10.0757   -2.4177    0.0000 H       1  UNL1        0.0263
     26 H           9.6772   -1.7274    0.0000 H       1  UNL1        0.0263
     27 H           7.4040    2.5000    0.0000 H       1  UNL1        0.0569
     28 H           8.8451   -3.3100    0.0000 H       1  UNL1        0.0230
     29 H           9.4651   -3.9300    0.0000 H       1  UNL1        0.0230
     30 H          10.0851   -3.3100    0.0000 H       1  UNL1        0.0230
     31 H           6.0010    3.3100    0.0000 H       1  UNL1        0.0569
     32 H           4.7365    1.7150    0.0000 H       1  UNL1        0.0312
     33 H           5.5335    1.7150    0.0000 H       1  UNL1        0.0312
     34 H           4.6675    3.1650    0.0000 H       1  UNL1        0.0380
     35 H           3.8705    3.1650    0.0000 H       1  UNL1        0.0380
     36 H           2.0000    2.3800    0.0000 H       1  UNL1        0.2951
@<TRIPOS>BOND
     1     1    14    1
     2     1    36    1
     3     2    14    2
     4     3     4    1
     5     3     5    1
     6     3    15    1
     7     3    16    1
     8     4     6    1
     9     4    17    1
    10     4    18    1
    11     5     7    1
    12     5    19    1
    13     5    20    1
    14     6     8    1
    15     6    21    1
    16     6    22    1
    17     7     9    1
    18     7    23    1
    19     7    24    1
    20     8    10    1
    21     8    25    1
    22     8    26    1
    23     9    11    2
    24     9    27    1
    25    10    28    1
    26    10    29    1
    27    10    30    1
    28    11    12    1
    29    11    31    1
    30    12    13    1
    31    12    32    1
    32    12    33    1
    33    13    14    1
    34    13    34    1
    35    13    35    1
