@<TRIPOS>MOLECULE
IMPHY006539
 40 42 0 0 0
SMALL
GASTEIGER

@<TRIPOS>ATOM
      1 O           3.7085    2.7974    0.0000 O.2     1  UNL1       -0.3007
      2 C           4.0791   -1.1204    0.0000 C.3     1  UNL1       -0.0230
      3 C           3.1781   -0.6865    0.0000 C.3     1  UNL1       -0.0293
      4 C           2.9556    0.2884    0.0000 C.3     1  UNL1       -0.0221
      5 C           4.5791    1.0702    0.0000 C.3     1  UNL1       -0.0308
      6 C           3.9722    0.0564    0.0000 C.3     1  UNL1       -0.0434
      7 C           3.9431   -2.1051    0.0000 C.3     1  UNL1       -0.0379
      8 C           4.9800   -0.6865    0.0000 C.3     1  UNL1       -0.0466
      9 C           3.5791    1.0702    0.0000 C.3     1  UNL1        0.0227
     10 C           2.4930   -1.4068    0.0000 C.3     1  UNL1       -0.0489
     11 C           5.2025    0.2884    0.0000 C.3     1  UNL1       -0.0490
     12 C           2.9648   -2.2818    0.0000 C.3     1  UNL1       -0.0497
     13 C           2.2225    0.9686    0.0000 C.3     1  UNL1       -0.0589
     14 C           2.0000   -0.0063    0.0000 C.3     1  UNL1       -0.0589
     15 C           4.6647   -2.7974    0.0000 C.3     1  UNL1       -0.0619
     16 C           3.1452    1.9712    0.0000 C.2     1  UNL1        0.1241
     17 H           2.3584   -0.4615    0.0000 H       1  UNL1        0.0312
     18 H           4.7682    1.8989    0.0000 H       1  UNL1        0.0308
     19 H           3.5644    0.5234    0.0000 H       1  UNL1        0.0274
     20 H           3.4022   -0.1875    0.0000 H       1  UNL1        0.0274
     21 H           3.7640   -2.6987    0.0000 H       1  UNL1        0.0304
     22 H           5.1180   -1.2910    0.0000 H       1  UNL1        0.0271
     23 H           5.6000   -0.6865    0.0000 H       1  UNL1        0.0271
     24 H           4.0313    1.7900    0.0000 H       1  UNL1        0.0382
     25 H           2.0911   -0.9347    0.0000 H       1  UNL1        0.0268
     26 H           1.9812   -1.7568    0.0000 H       1  UNL1        0.0268
     27 H           5.7612    0.0194    0.0000 H       1  UNL1        0.0268
     28 H           5.5891    0.7731    0.0000 H       1  UNL1        0.0268
     29 H           2.3912   -2.5171    0.0000 H       1  UNL1        0.0268
     30 H           3.1385   -2.8770    0.0000 H       1  UNL1        0.0268
     31 H           2.6442    1.4231    0.0000 H       1  UNL1        0.0235
     32 H           1.7680    1.3903    0.0000 H       1  UNL1        0.0235
     33 H           1.8008    0.5141    0.0000 H       1  UNL1        0.0235
     34 H           1.8172    0.5861    0.0000 H       1  UNL1        0.0235
     35 H           1.4075   -0.1891    0.0000 H       1  UNL1        0.0235
     36 H           2.1828   -0.5988    0.0000 H       1  UNL1        0.0235
     37 H           4.2354   -3.2448    0.0000 H       1  UNL1        0.0233
     38 H           5.1121   -3.2267    0.0000 H       1  UNL1        0.0233
     39 H           5.0939   -2.3501    0.0000 H       1  UNL1        0.0233
     40 H           2.5269    2.0175    0.0000 H       1  UNL1        0.1029
@<TRIPOS>BOND
     1     1    16    2
     2     2     3    1
     3     2     6    1
     4     2     7    1
     5     2     8    1
     6     3     4    1
     7     3    10    1
     8     3    17    1
     9     4     9    1
    10     4    13    1
    11     4    14    1
    12     5     6    1
    13     5     9    1
    14     5    11    1
    15     5    18    1
    16     6    19    1
    17     6    20    1
    18     7    12    1
    19     7    15    1
    20     7    21    1
    21     8    11    1
    22     8    22    1
    23     8    23    1
    24     9    16    1
    25     9    24    1
    26    10    12    1
    27    10    25    1
    28    10    26    1
    29    11    27    1
    30    11    28    1
    31    12    29    1
    32    12    30    1
    33    13    31    1
    34    13    32    1
    35    13    33    1
    36    14    34    1
    37    14    35    1
    38    14    36    1
    39    15    37    1
    40    15    38    1
    41    15    39    1
    42    16    40    1
