@<TRIPOS>MOLECULE
IMPHY016595
 20 20 0 0 0
SMALL
GASTEIGER

@<TRIPOS>ATOM
      1 O           4.5981    2.0000    0.0000 O.2     1  UNL1       -0.2102
      2 N           2.8660    1.0000    0.0000 N.2     1  UNL1       -0.2021
      3 C           2.8660   -0.0000    0.0000 C.3     1  UNL1        0.0630
      4 C           2.0000   -0.5000    0.0000 C.3     1  UNL1       -0.0297
      5 C           3.7320   -0.5000    0.0000 C.3     1  UNL1       -0.0297
      6 C           2.0000   -1.5000    0.0000 C.3     1  UNL1       -0.0511
      7 C           3.7320   -1.5000    0.0000 C.3     1  UNL1       -0.0511
      8 C           2.8660   -2.0000    0.0000 C.3     1  UNL1       -0.0529
      9 C           3.7320    1.5000    0.0000 C.1     1  UNL1        0.2348
     10 H           3.4030    0.3100    0.0000 H       1  UNL1        0.0553
     11 H           1.7880    0.0826    0.0000 H       1  UNL1        0.0286
     12 H           1.3894   -0.6077    0.0000 H       1  UNL1        0.0286
     13 H           4.3426   -0.6077    0.0000 H       1  UNL1        0.0286
     14 H           3.9441    0.0826    0.0000 H       1  UNL1        0.0286
     15 H           1.3894   -1.3923    0.0000 H       1  UNL1        0.0266
     16 H           1.7880   -2.0826    0.0000 H       1  UNL1        0.0266
     17 H           3.9441   -2.0826    0.0000 H       1  UNL1        0.0266
     18 H           4.3426   -1.3923    0.0000 H       1  UNL1        0.0266
     19 H           2.4675   -2.4750    0.0000 H       1  UNL1        0.0265
     20 H           3.2646   -2.4750    0.0000 H       1  UNL1        0.0265
@<TRIPOS>BOND
     1     1     9    2
     2     2     3    1
     3     2     9    2
     4     3     4    1
     5     3     5    1
     6     3    10    1
     7     4     6    1
     8     4    11    1
     9     4    12    1
    10     5     7    1
    11     5    13    1
    12     5    14    1
    13     6     8    1
    14     6    15    1
    15     6    16    1
    16     7     8    1
    17     7    17    1
    18     7    18    1
    19     8    19    1
    20     8    20    1
