@<TRIPOS>MOLECULE
IMPHY008968
 189 193 0 0 0
SMALL
GASTEIGER

@<TRIPOS>ATOM
      1 O           7.7331   -2.5000    0.0000 O.3     1  UNL1       -0.3421
      2 O           9.4651   -2.5000    0.0000 O.3     1  UNL1       -0.3393
      3 O           7.7331   -5.5000    0.0000 O.3     1  UNL1       -0.3389
      4 O           6.0010   -4.5000    0.0000 O.3     1  UNL1       -0.3402
      5 O           8.5991    0.0000    0.0000 O.3     1  UNL1       -0.3431
      6 O           9.4651   -4.5000    0.0000 O.3     1  UNL1       -0.4535
      7 O           9.4651    1.5000    0.0000 O.3     1  UNL1       -0.3378
      8 O           6.4062   -6.6133    0.0000 O.3     1  UNL1       -0.3431
      9 O           5.1350   -3.0000    0.0000 O.3     1  UNL1       -0.3431
     10 O          11.1972   -1.5000    0.0000 O.3     1  UNL1       -0.3864
     11 O           7.7331    3.5000    0.0000 O.3     1  UNL1       -0.3431
     12 O          11.1972    0.5000    0.0000 O.3     1  UNL1       -0.3841
     13 O           9.4651    3.5000    0.0000 O.3     1  UNL1       -0.3454
     14 O           9.0187   -7.0320    0.0000 O.3     1  UNL1       -0.3841
     15 O           4.2690   -5.5000    0.0000 O.3     1  UNL1       -0.3841
     16 O           7.7331    0.5000    0.0000 O.3     1  UNL1       -0.3864
     17 O           8.3347   -8.9115    0.0000 O.3     1  UNL1       -0.3864
     18 O           2.5369   -4.5000    0.0000 O.3     1  UNL1       -0.3864
     19 O           6.3650   -9.2588    0.0000 O.3     1  UNL1       -0.3866
     20 O           2.5369   -2.5000    0.0000 O.3     1  UNL1       -0.3866
     21 O           6.0010    1.5000    0.0000 O.3     1  UNL1       -0.3866
     22 O          10.3312   -3.0000    0.0000 O.2     1  UNL1       -0.2508
     23 O           3.4030   11.0000    0.0000 O.3     1  UNL1       -0.4679
     24 O           5.1350   11.0000    0.0000 O.2     1  UNL1       -0.2509
     25 C           7.7331   -4.5000    0.0000 C.3     1  UNL1        0.1319
     26 C           6.8671   -4.0000    0.0000 C.3     1  UNL1        0.1174
     27 C           8.5991   -4.0000    0.0000 C.3     1  UNL1        0.1820
     28 C           8.5991   -3.0000    0.0000 C.3     1  UNL1        0.1996
     29 C           6.8671   -3.0000    0.0000 C.3     1  UNL1        0.0878
     30 C           9.4651   -1.5000    0.0000 C.3     1  UNL1        0.1160
     31 C          10.3312   -1.0000    0.0000 C.3     1  UNL1        0.1143
     32 C           8.5991   -1.0000    0.0000 C.3     1  UNL1        0.0877
     33 C          10.3312    0.0000    0.0000 C.3     1  UNL1        0.1341
     34 C           9.4651    0.5000    0.0000 C.3     1  UNL1        0.1884
     35 C           7.3910   -6.4397    0.0000 C.3     1  UNL1        0.1884
     36 C           5.1350   -4.0000    0.0000 C.3     1  UNL1        0.1883
     37 C           8.5991    2.0000    0.0000 C.3     1  UNL1        0.1406
     38 C           8.0339   -7.2057    0.0000 C.3     1  UNL1        0.1341
     39 C           6.0010   -2.5000    0.0000 C.3     1  UNL1       -0.0360
     40 C           4.2690   -4.5000    0.0000 C.3     1  UNL1        0.1341
     41 C           7.7331    1.5000    0.0000 C.3     1  UNL1        0.1143
     42 C           7.6918   -8.1454    0.0000 C.3     1  UNL1        0.1140
     43 C           3.4030   -4.0000    0.0000 C.3     1  UNL1        0.1140
     44 C           8.5991    3.0000    0.0000 C.3     1  UNL1        0.1885
     45 C           6.7070   -8.3191    0.0000 C.3     1  UNL1        0.1095
     46 C           6.0642   -7.5530    0.0000 C.3     1  UNL1        0.0873
     47 C           3.4030   -3.0000    0.0000 C.3     1  UNL1        0.1095
     48 C           6.8671    2.0000    0.0000 C.3     1  UNL1        0.1095
     49 C           4.2690   -2.5000    0.0000 C.3     1  UNL1        0.0873
     50 C           7.7331   -1.5000    0.0000 C.3     1  UNL1       -0.0361
     51 C           6.8671    3.0000    0.0000 C.3     1  UNL1        0.0873
     52 C          10.3312   -4.0000    0.0000 C.2     1  UNL1        0.3076
     53 C           9.4651    4.5000    0.0000 C.3     1  UNL1        0.0618
     54 C           5.0794   -7.7266    0.0000 C.3     1  UNL1       -0.0361
     55 C           4.2690   -1.5000    0.0000 C.3     1  UNL1       -0.0361
     56 C           6.0010    3.5000    0.0000 C.3     1  UNL1       -0.0361
     57 C           8.5991    5.0000    0.0000 C.3     1  UNL1       -0.0265
     58 C          11.1972   -4.5000    0.0000 C.3     1  UNL1        0.0450
     59 C          10.3312    5.0000    0.0000 C.3     1  UNL1       -0.0265
     60 C           7.7331    4.5000    0.0000 C.3     1  UNL1       -0.0507
     61 C          11.1972   -5.5000    0.0000 C.3     1  UNL1       -0.0430
     62 C          10.3312    6.0000    0.0000 C.3     1  UNL1       -0.0507
     63 C           6.8671    5.0000    0.0000 C.3     1  UNL1       -0.0530
     64 C          12.0632   -6.0000    0.0000 C.3     1  UNL1       -0.0526
     65 C           9.4651    6.5000    0.0000 C.3     1  UNL1       -0.0532
     66 C           6.8671    6.0000    0.0000 C.3     1  UNL1       -0.0531
     67 C          12.0632   -7.0000    0.0000 C.3     1  UNL1       -0.0530
     68 C           8.5991    6.0000    0.0000 C.3     1  UNL1       -0.0559
     69 C           6.0010    6.5000    0.0000 C.3     1  UNL1       -0.0531
     70 C          12.9292   -7.5000    0.0000 C.3     1  UNL1       -0.0531
     71 C           6.0010    7.5000    0.0000 C.3     1  UNL1       -0.0530
     72 C          12.9292   -8.5000    0.0000 C.3     1  UNL1       -0.0531
     73 C           7.7331    6.5000    0.0000 C.3     1  UNL1       -0.0653
     74 C           5.1350    8.0000    0.0000 C.3     1  UNL1       -0.0526
     75 C          13.7953   -9.0000    0.0000 C.3     1  UNL1       -0.0531
     76 C           5.1350    9.0000    0.0000 C.3     1  UNL1       -0.0430
     77 C          13.7953  -10.0000    0.0000 C.3     1  UNL1       -0.0531
     78 C          14.6613  -10.5000    0.0000 C.3     1  UNL1       -0.0533
     79 C           4.2690    9.5000    0.0000 C.3     1  UNL1        0.0449
     80 C          14.6613  -11.5000    0.0000 C.3     1  UNL1       -0.0559
     81 C           4.2690   10.5000    0.0000 C.2     1  UNL1        0.3068
     82 C          15.5273  -12.0000    0.0000 C.3     1  UNL1       -0.0653
     83 C           3.4030   12.0000    0.0000 C.3     1  UNL1        0.0817
     84 H           8.2700   -4.8100    0.0000 H       1  UNL1        0.0663
     85 H           6.3301   -3.6900    0.0000 H       1  UNL1        0.0650
     86 H           9.1360   -3.6900    0.0000 H       1  UNL1        0.0813
     87 H           8.5991   -2.3800    0.0000 H       1  UNL1        0.0949
     88 H           6.8671   -2.3800    0.0000 H       1  UNL1        0.0621
     89 H          10.0021   -1.8100    0.0000 H       1  UNL1        0.0650
     90 H          10.8681   -0.6900    0.0000 H       1  UNL1        0.0648
     91 H           8.0622   -0.6900    0.0000 H       1  UNL1        0.0621
     92 H          10.3312    0.6200    0.0000 H       1  UNL1        0.0671
     93 H           8.9282    0.8100    0.0000 H       1  UNL1        0.0938
     94 H           6.9925   -5.9647    0.0000 H       1  UNL1        0.0938
     95 H           5.1350   -4.6200    0.0000 H       1  UNL1        0.0938
     96 H           8.5991    1.3800    0.0000 H       1  UNL1        0.0675
     97 H           8.4324   -7.6807    0.0000 H       1  UNL1        0.0671
     98 H           6.3110   -1.9631    0.0000 H       1  UNL1        0.0255
     99 H           5.4641   -2.1900    0.0000 H       1  UNL1        0.0255
    100 H           5.6910   -3.0369    0.0000 H       1  UNL1        0.0255
    101 H           3.7320   -4.8100    0.0000 H       1  UNL1        0.0671
    102 H           7.1962    1.1900    0.0000 H       1  UNL1        0.0648
    103 H           7.4798   -8.7280    0.0000 H       1  UNL1        0.0648
    104 H           2.8660   -3.6900    0.0000 H       1  UNL1        0.0648
    105 H           8.5991    3.6200    0.0000 H       1  UNL1        0.0938
    106 H           6.0964   -8.4267    0.0000 H       1  UNL1        0.0646
    107 H           5.6656   -7.0780    0.0000 H       1  UNL1        0.0621
    108 H           3.4030   -2.3800    0.0000 H       1  UNL1        0.0646
    109 H           6.3301    2.3100    0.0000 H       1  UNL1        0.0646
    110 H           4.8059   -2.1900    0.0000 H       1  UNL1        0.0621
    111 H           7.4231   -0.9631    0.0000 H       1  UNL1        0.0255
    112 H           7.1962   -1.8100    0.0000 H       1  UNL1        0.0255
    113 H           8.0431   -2.0369    0.0000 H       1  UNL1        0.0255
    114 H           6.8671    3.6200    0.0000 H       1  UNL1        0.0621
    115 H          11.7341   -1.1900    0.0000 H       1  UNL1        0.2100
    116 H          11.1972    1.1200    0.0000 H       1  UNL1        0.2101
    117 H          10.0021    4.1900    0.0000 H       1  UNL1        0.0597
    118 H           4.9717   -7.1160    0.0000 H       1  UNL1        0.0255
    119 H           4.4688   -7.8342    0.0000 H       1  UNL1        0.0255
    120 H           5.1870   -8.3372    0.0000 H       1  UNL1        0.0255
    121 H           4.8890   -1.5000    0.0000 H       1  UNL1        0.0255
    122 H           4.2690   -0.8800    0.0000 H       1  UNL1        0.0255
    123 H           3.6490   -1.5000    0.0000 H       1  UNL1        0.0255
    124 H           6.3110    4.0369    0.0000 H       1  UNL1        0.0255
    125 H           5.4641    3.8100    0.0000 H       1  UNL1        0.0255
    126 H           5.6910    2.9631    0.0000 H       1  UNL1        0.0255
    127 H           9.4173   -7.5070    0.0000 H       1  UNL1        0.2101
    128 H           3.7320   -5.8100    0.0000 H       1  UNL1        0.2101
    129 H           7.1962    0.1900    0.0000 H       1  UNL1        0.2100
    130 H           8.1226   -9.4941    0.0000 H       1  UNL1        0.2100
    131 H           8.9976    5.4750    0.0000 H       1  UNL1        0.0290
    132 H           8.2006    5.4750    0.0000 H       1  UNL1        0.0290
    133 H          11.8078   -4.6077    0.0000 H       1  UNL1        0.0377
    134 H          11.4092   -3.9174    0.0000 H       1  UNL1        0.0377
    135 H          10.5432    4.4174    0.0000 H       1  UNL1        0.0290
    136 H          10.9417    5.1077    0.0000 H       1  UNL1        0.0290
    137 H           2.0000   -4.1900    0.0000 H       1  UNL1        0.2100
    138 H           5.7544   -9.3664    0.0000 H       1  UNL1        0.2100
    139 H           2.5369   -1.8800    0.0000 H       1  UNL1        0.2100
    140 H           5.4641    1.8100    0.0000 H       1  UNL1        0.2100
    141 H           7.3346    4.0250    0.0000 H       1  UNL1        0.0266
    142 H           8.1316    4.0250    0.0000 H       1  UNL1        0.0266
    143 H          10.5866   -5.3923    0.0000 H       1  UNL1        0.0270
    144 H          10.9851   -6.0826    0.0000 H       1  UNL1        0.0270
    145 H          10.9417    5.8923    0.0000 H       1  UNL1        0.0266
    146 H          10.5432    6.5826    0.0000 H       1  UNL1        0.0266
    147 H           6.2565    5.1077    0.0000 H       1  UNL1        0.0265
    148 H           6.6550    4.4174    0.0000 H       1  UNL1        0.0265
    149 H          12.6738   -6.1077    0.0000 H       1  UNL1        0.0265
    150 H          12.2753   -5.4174    0.0000 H       1  UNL1        0.0265
    151 H           9.8637    6.9750    0.0000 H       1  UNL1        0.0265
    152 H           9.0666    6.9750    0.0000 H       1  UNL1        0.0265
    153 H           7.4776    5.8923    0.0000 H       1  UNL1        0.0265
    154 H           7.0791    6.5826    0.0000 H       1  UNL1        0.0265
    155 H          11.4526   -6.8923    0.0000 H       1  UNL1        0.0265
    156 H          11.8512   -7.5826    0.0000 H       1  UNL1        0.0265
    157 H           8.2006    5.5250    0.0000 H       1  UNL1        0.0263
    158 H           8.9976    5.5250    0.0000 H       1  UNL1        0.0263
    159 H           5.3905    6.6077    0.0000 H       1  UNL1        0.0265
    160 H           5.7890    5.9174    0.0000 H       1  UNL1        0.0265
    161 H          13.5398   -7.6077    0.0000 H       1  UNL1        0.0265
    162 H          13.1413   -6.9174    0.0000 H       1  UNL1        0.0265
    163 H           6.6116    7.3923    0.0000 H       1  UNL1        0.0265
    164 H           6.2131    8.0826    0.0000 H       1  UNL1        0.0265
    165 H          12.3187   -8.3923    0.0000 H       1  UNL1        0.0265
    166 H          12.7172   -9.0826    0.0000 H       1  UNL1        0.0265
    167 H           8.0431    7.0369    0.0000 H       1  UNL1        0.0230
    168 H           7.1962    6.8100    0.0000 H       1  UNL1        0.0230
    169 H           7.4231    5.9631    0.0000 H       1  UNL1        0.0230
    170 H           4.5244    8.1077    0.0000 H       1  UNL1        0.0265
    171 H           4.9230    7.4174    0.0000 H       1  UNL1        0.0265
    172 H          14.4058   -9.1077    0.0000 H       1  UNL1        0.0265
    173 H          14.0073   -8.4174    0.0000 H       1  UNL1        0.0265
    174 H           5.7456    8.8923    0.0000 H       1  UNL1        0.0270
    175 H           5.3471    9.5826    0.0000 H       1  UNL1        0.0270
    176 H          13.1847   -9.8923    0.0000 H       1  UNL1        0.0265
    177 H          13.5832  -10.5826    0.0000 H       1  UNL1        0.0265
    178 H          15.2719  -10.6077    0.0000 H       1  UNL1        0.0265
    179 H          14.8733   -9.9174    0.0000 H       1  UNL1        0.0265
    180 H           3.6584    9.6077    0.0000 H       1  UNL1        0.0377
    181 H           4.0569    8.9174    0.0000 H       1  UNL1        0.0377
    182 H          14.0507  -11.3923    0.0000 H       1  UNL1        0.0263
    183 H          14.4492  -12.0826    0.0000 H       1  UNL1        0.0263
    184 H          15.2173  -12.5369    0.0000 H       1  UNL1        0.0230
    185 H          16.0643  -12.3100    0.0000 H       1  UNL1        0.0230
    186 H          15.8373  -11.4631    0.0000 H       1  UNL1        0.0230
    187 H           4.0230   12.0000    0.0000 H       1  UNL1        0.0661
    188 H           3.4030   12.6200    0.0000 H       1  UNL1        0.0661
    189 H           2.7830   12.0000    0.0000 H       1  UNL1        0.0661
@<TRIPOS>BOND
     1     1    28    1
     2     1    29    1
     3    28     2    1
     4    30     2    1
     5    25     3    1
     6    35     3    1
     7    26     4    1
     8    36     4    1
     9     5    32    1
    10     5    34    1
    11    27     6    1
    12     6    52    1
    13    34     7    1
    14    37     7    1
    15     8    35    1
    16     8    46    1
    17     9    36    1
    18     9    49    1
    19    31    10    1
    20    10   115    1
    21    11    44    1
    22    11    51    1
    23    33    12    1
    24    12   116    1
    25    44    13    1
    26    53    13    1
    27    38    14    1
    28    14   127    1
    29    40    15    1
    30    15   128    1
    31    41    16    1
    32    16   129    1
    33    42    17    1
    34    17   130    1
    35    43    18    1
    36    18   137    1
    37    45    19    1
    38    19   138    1
    39    47    20    1
    40    20   139    1
    41    48    21    1
    42    21   140    1
    43    22    52    2
    44    23    81    1
    45    23    83    1
    46    24    81    2
    47    25    26    1
    48    25    27    1
    49    25    84    1
    50    26    29    1
    51    26    85    1
    52    27    28    1
    53    27    86    1
    54    28    87    1
    55    29    39    1
    56    29    88    1
    57    30    31    1
    58    30    32    1
    59    30    89    1
    60    31    33    1
    61    31    90    1
    62    32    50    1
    63    32    91    1
    64    33    34    1
    65    33    92    1
    66    34    93    1
    67    35    38    1
    68    35    94    1
    69    36    40    1
    70    36    95    1
    71    37    41    1
    72    37    44    1
    73    37    96    1
    74    38    42    1
    75    38    97    1
    76    39    98    1
    77    39    99    1
    78    39   100    1
    79    40    43    1
    80    40   101    1
    81    41    48    1
    82    41   102    1
    83    42    45    1
    84    42   103    1
    85    43    47    1
    86    43   104    1
    87    44   105    1
    88    45    46    1
    89    45   106    1
    90    46    54    1
    91    46   107    1
    92    47    49    1
    93    47   108    1
    94    48    51    1
    95    48   109    1
    96    49    55    1
    97    49   110    1
    98    50   111    1
    99    50   112    1
   100    50   113    1
   101    51    56    1
   102    51   114    1
   103    52    58    1
   104    53    57    1
   105    53    59    1
   106    53   117    1
   107    54   118    1
   108    54   119    1
   109    54   120    1
   110    55   121    1
   111    55   122    1
   112    55   123    1
   113    56   124    1
   114    56   125    1
   115    56   126    1
   116    57    60    1
   117    57   131    1
   118    57   132    1
   119    58    61    1
   120    58   133    1
   121    58   134    1
   122    59    62    1
   123    59   135    1
   124    59   136    1
   125    60    63    1
   126    60   141    1
   127    60   142    1
   128    61    64    1
   129    61   143    1
   130    61   144    1
   131    62    65    1
   132    62   145    1
   133    62   146    1
   134    63    66    1
   135    63   147    1
   136    63   148    1
   137    64    67    1
   138    64   149    1
   139    64   150    1
   140    65    68    1
   141    65   151    1
   142    65   152    1
   143    66    69    1
   144    66   153    1
   145    66   154    1
   146    67    70    1
   147    67   155    1
   148    67   156    1
   149    68    73    1
   150    68   157    1
   151    68   158    1
   152    69    71    1
   153    69   159    1
   154    69   160    1
   155    70    72    1
   156    70   161    1
   157    70   162    1
   158    71    74    1
   159    71   163    1
   160    71   164    1
   161    72    75    1
   162    72   165    1
   163    72   166    1
   164    73   167    1
   165    73   168    1
   166    73   169    1
   167    74    76    1
   168    74   170    1
   169    74   171    1
   170    75    77    1
   171    75   172    1
   172    75   173    1
   173    76    79    1
   174    76   174    1
   175    76   175    1
   176    77    78    1
   177    77   176    1
   178    77   177    1
   179    78    80    1
   180    78   178    1
   181    78   179    1
   182    79    81    1
   183    79   180    1
   184    79   181    1
   185    80    82    1
   186    80   182    1
   187    80   183    1
   188    82   184    1
   189    82   185    1
   190    82   186    1
   191    83   187    1
   192    83   188    1
   193    83   189    1
