@<TRIPOS>MOLECULE
IMPHY017090
 38 38 0 0 0
SMALL
GASTEIGER

@<TRIPOS>ATOM
      1 O           5.4641    0.2500    0.0000 O.3     1  UNL1       -0.4250
      2 O           4.5981   -1.2500    0.0000 O.2     1  UNL1       -0.2501
      3 O           8.9282   -1.7500    0.0000 O.3     1  UNL1       -0.4951
      4 C           3.7320    0.2500    0.0000 C.3     1  UNL1        0.0538
      5 C           2.8660   -0.2500    0.0000 C.3     1  UNL1       -0.0432
      6 C           3.7320    1.2500    0.0000 C.3     1  UNL1       -0.0523
      7 C           4.5981   -0.2500    0.0000 C.2     1  UNL1        0.3152
      8 C           2.0000    0.2500    0.0000 C.3     1  UNL1       -0.0645
      9 C           6.3301   -0.2500    0.0000 C.ar    1  UNL1        0.1390
     10 C           7.1962    0.2500    0.0000 C.ar    1  UNL1        0.0205
     11 C           6.3301   -1.2500    0.0000 C.ar    1  UNL1       -0.0152
     12 C           8.0622   -0.2500    0.0000 C.ar    1  UNL1       -0.0093
     13 C           8.0622   -1.2500    0.0000 C.ar    1  UNL1        0.1209
     14 C           7.1962   -1.7500    0.0000 C.ar    1  UNL1       -0.0164
     15 C           7.1962    1.2500    0.0000 C.2     1  UNL1       -0.0552
     16 C           8.0622    1.7500    0.0000 C.2     1  UNL1       -0.0864
     17 C           8.0622    2.7500    0.0000 C.3     1  UNL1       -0.0465
     18 C           8.9282   -2.7500    0.0000 C.3     1  UNL1        0.0788
     19 H           4.2690    0.5600    0.0000 H       1  UNL1        0.0411
     20 H           2.4675   -0.7249    0.0000 H       1  UNL1        0.0270
     21 H           3.2646   -0.7249    0.0000 H       1  UNL1        0.0270
     22 H           4.3520    1.2500    0.0000 H       1  UNL1        0.0238
     23 H           3.7320    1.8700    0.0000 H       1  UNL1        0.0238
     24 H           3.1120    1.2500    0.0000 H       1  UNL1        0.0238
     25 H           2.3100    0.7869    0.0000 H       1  UNL1        0.0230
     26 H           1.4631    0.5600    0.0000 H       1  UNL1        0.0230
     27 H           1.6900   -0.2869    0.0000 H       1  UNL1        0.0230
     28 H           5.7932   -1.5600    0.0000 H       1  UNL1        0.0656
     29 H           8.5991    0.0600    0.0000 H       1  UNL1        0.0661
     30 H           7.1962   -2.3700    0.0000 H       1  UNL1        0.0655
     31 H           6.6592    1.5600    0.0000 H       1  UNL1        0.0621
     32 H           8.5991    1.4400    0.0000 H       1  UNL1        0.0569
     33 H           8.6822    2.7500    0.0000 H       1  UNL1        0.0272
     34 H           8.0622    3.3700    0.0000 H       1  UNL1        0.0272
     35 H           7.4422    2.7500    0.0000 H       1  UNL1        0.0272
     36 H           8.3082   -2.7500    0.0000 H       1  UNL1        0.0660
     37 H           8.9282   -3.3700    0.0000 H       1  UNL1        0.0660
     38 H           9.5482   -2.7500    0.0000 H       1  UNL1        0.0660
@<TRIPOS>BOND
     1     1     7    1
     2     1     9    1
     3     2     7    2
     4     3    13    1
     5     3    18    1
     6     4     5    1
     7     4     6    1
     8     4     7    1
     9     4    19    1
    10     5     8    1
    11     5    20    1
    12     5    21    1
    13     6    22    1
    14     6    23    1
    15     6    24    1
    16     8    25    1
    17     8    26    1
    18     8    27    1
    19     9    10   ar
    20     9    11   ar
    21    10    12   ar
    22    10    15    1
    23    11    14   ar
    24    11    28    1
    25    12    13   ar
    26    12    29    1
    27    13    14   ar
    28    14    30    1
    29    15    16    2
    30    15    31    1
    31    16    17    1
    32    16    32    1
    33    17    33    1
    34    17    34    1
    35    17    35    1
    36    18    36    1
    37    18    37    1
    38    18    38    1
