@<TRIPOS>MOLECULE
IMPHY008768
 45 49 0 0 0
SMALL
GASTEIGER

@<TRIPOS>ATOM
      1 O           7.1256   -1.7651    0.0000 O.3     1  UNL1       -0.3416
      2 O           4.8449    2.7305    0.0000 O.3     1  UNL1       -0.3757
      3 O           6.2596   -3.2651    0.0000 O.3     1  UNL1       -0.3633
      4 O           2.6079   -0.4269    0.0000 O.3     1  UNL1       -0.4526
      5 O           2.6079   -2.1033    0.0000 O.3     1  UNL1       -0.4526
      6 N           7.4575    0.8098    0.0000 N.3     1  UNL1       -0.2986
      7 C           6.2596   -0.2651    0.0000 C.3     1  UNL1        0.0574
      8 C           6.4688    0.7067    0.0000 C.3     1  UNL1        0.0284
      9 C           7.1256   -0.7651    0.0000 C.3     1  UNL1        0.0891
     10 C           7.8626   -0.0980    0.0000 C.3     1  UNL1        0.0265
     11 C           6.1666    1.6971    0.0000 C.3     1  UNL1       -0.0061
     12 C           5.3935   -0.7651    0.0000 C.ar    1  UNL1       -0.0218
     13 C           5.2440   -0.0628    0.0000 C.2     1  UNL1       -0.0711
     14 C           5.3086    1.8445    0.0000 C.3     1  UNL1        0.0779
     15 C           5.3935   -1.7651    0.0000 C.ar    1  UNL1        0.0155
     16 C           4.7664    0.9986    0.0000 C.2     1  UNL1       -0.0586
     17 C           6.2596   -2.2651    0.0000 C.3     1  UNL1        0.1835
     18 C           7.9575    1.6758    0.0000 C.3     1  UNL1       -0.0123
     19 C           4.4996   -0.2304    0.0000 C.ar    1  UNL1       -0.0116
     20 C           4.4996   -2.2998    0.0000 C.ar    1  UNL1       -0.0079
     21 C           3.5935   -0.7443    0.0000 C.ar    1  UNL1        0.1665
     22 C           3.5935   -1.7859    0.0000 C.ar    1  UNL1        0.1667
     23 C           5.3802    3.5751    0.0000 C.3     1  UNL1        0.0372
     24 C           2.0000   -1.2651    0.0000 C.3     1  UNL1        0.2332
     25 H           6.9384    1.4152    0.0000 H       1  UNL1        0.0476
     26 H           7.9025   -1.1098    0.0000 H       1  UNL1        0.0622
     27 H           8.2280   -0.5989    0.0000 H       1  UNL1        0.0452
     28 H           8.3991    0.2127    0.0000 H       1  UNL1        0.0452
     29 H           6.7804    1.7840    0.0000 H       1  UNL1        0.0309
     30 H           6.1757    2.3170    0.0000 H       1  UNL1        0.0309
     31 H           4.8579   -0.5479    0.0000 H       1  UNL1        0.0580
     32 H           5.6736    2.3457    0.0000 H       1  UNL1        0.0641
     33 H           4.1481    1.0442    0.0000 H       1  UNL1        0.0595
     34 H           5.7226   -2.5751    0.0000 H       1  UNL1        0.0963
     35 H           8.4944    1.3658    0.0000 H       1  UNL1        0.0391
     36 H           8.2675    2.2127    0.0000 H       1  UNL1        0.0391
     37 H           7.4205    1.9858    0.0000 H       1  UNL1        0.0391
     38 H           4.5068    0.3895    0.0000 H       1  UNL1        0.0658
     39 H           4.5068   -2.9197    0.0000 H       1  UNL1        0.0660
     40 H           6.7965   -3.5751    0.0000 H       1  UNL1        0.2128
     41 H           5.9039    3.2432    0.0000 H       1  UNL1        0.0524
     42 H           5.7122    4.0988    0.0000 H       1  UNL1        0.0524
     43 H           4.8566    3.9070    0.0000 H       1  UNL1        0.0524
     44 H           1.5391   -0.8504    0.0000 H       1  UNL1        0.1166
     45 H           1.5391   -1.6798    0.0000 H       1  UNL1        0.1166
@<TRIPOS>BOND
     1     1     9    1
     2     1    17    1
     3    14     2    1
     4     2    23    1
     5    17     3    1
     6     3    40    1
     7     4    21    1
     8     4    24    1
     9     5    22    1
    10     5    24    1
    11     6     8    1
    12     6    10    1
    13     6    18    1
    14     7     8    1
    15     7     9    1
    16     7    12    1
    17     7    13    1
    18     8    11    1
    19     8    25    1
    20     9    10    1
    21     9    26    1
    22    10    27    1
    23    10    28    1
    24    11    14    1
    25    11    29    1
    26    11    30    1
    27    12    15   ar
    28    12    19   ar
    29    13    16    2
    30    13    31    1
    31    14    16    1
    32    14    32    1
    33    15    17    1
    34    15    20   ar
    35    16    33    1
    36    17    34    1
    37    18    35    1
    38    18    36    1
    39    18    37    1
    40    19    21   ar
    41    19    38    1
    42    20    22   ar
    43    20    39    1
    44    21    22   ar
    45    23    41    1
    46    23    42    1
    47    23    43    1
    48    24    44    1
    49    24    45    1
