@<TRIPOS>MOLECULE
IMPHY006799
 71 75 0 0 0
SMALL
GASTEIGER

@<TRIPOS>ATOM
      1 O           5.6489   -2.7229    0.0000 O.3     1  UNL1       -0.4586
      2 O           7.4149   -1.6852    0.0000 O.3     1  UNL1       -0.3873
      3 O           2.0000   -1.7060    0.0000 O.2     1  UNL1       -0.2968
      4 O           8.6528    4.2196    0.0000 O.2     1  UNL1       -0.4708
      5 O           7.3810   -2.7163    0.0000 O.2     1  UNL1       -0.2512
      6 C           5.6610    0.3463    0.0000 C.3     1  UNL1       -0.0236
      7 C           4.7510   -0.1605    0.0000 C.3     1  UNL1       -0.0208
      8 C           6.5271   -0.1537    0.0000 C.3     1  UNL1        0.0222
      9 C           4.7430   -1.2021    0.0000 C.3     1  UNL1        0.0161
     10 C           7.3931    1.3463    0.0000 C.3     1  UNL1       -0.0033
     11 C           6.5431   -1.1952    0.0000 C.3     1  UNL1        0.1016
     12 C           5.6451   -1.7230    0.0000 C.3     1  UNL1        0.1337
     13 C           7.3931    0.3463    0.0000 C.2     1  UNL1       -0.0582
     14 C           5.6610    1.3463    0.0000 C.3     1  UNL1       -0.0480
     15 C           3.8076   -1.7519    0.0000 C.3     1  UNL1        0.0301
     16 C           3.8242    0.4035    0.0000 C.3     1  UNL1       -0.0402
     17 C           6.5271    1.8463    0.0000 C.3     1  UNL1       -0.0430
     18 C           8.3393    1.6510    0.0000 C.3     1  UNL1       -0.0004
     19 C           4.7587    0.8394    0.0000 C.3     1  UNL1       -0.0589
     20 C           7.3931   -0.6537    0.0000 C.3     1  UNL1       -0.0531
     21 C           2.8763   -0.1244    0.0000 C.3     1  UNL1        0.0069
     22 C           8.3393    0.0416    0.0000 C.2     1  UNL1       -0.0830
     23 C           2.8680   -1.2094    0.0000 C.2     1  UNL1        0.1393
     24 C           8.9229    0.8463    0.0000 C.3     1  UNL1       -0.0267
     25 C           7.3931    2.3463    0.0000 C.3     1  UNL1       -0.0553
     26 C           3.3109   -2.6198    0.0000 C.3     1  UNL1       -0.0527
     27 C           4.3109   -2.6160    0.0000 C.3     1  UNL1       -0.0527
     28 C           8.6500    2.6016    0.0000 C.ar    1  UNL1       -0.0055
     29 C           6.5169   -3.2196    0.0000 C.2     1  UNL1        0.3043
     30 C           9.6016    2.9089    0.0000 C.ar    1  UNL1       -0.0204
     31 C           8.0636    3.4116    0.0000 C.ar    1  UNL1        0.0951
     32 C           9.6033    3.9089    0.0000 C.ar    1  UNL1        0.0920
     33 C           6.5207   -4.2196    0.0000 C.3     1  UNL1        0.0332
     34 H           6.3972    0.7713    0.0000 H       1  UNL1        0.0315
     35 H           4.7463   -2.0521    0.0000 H       1  UNL1        0.0352
     36 H           6.5491   -1.8152    0.0000 H       1  UNL1        0.0639
     37 H           5.1087   -2.0340    0.0000 H       1  UNL1        0.0763
     38 H           5.4490    1.9289    0.0000 H       1  UNL1        0.0269
     39 H           5.0504    1.2386    0.0000 H       1  UNL1        0.0269
     40 H           4.2324    0.8702    0.0000 H       1  UNL1        0.0275
     41 H           3.4343    0.8856    0.0000 H       1  UNL1        0.0275
     42 H           6.9256    2.3213    0.0000 H       1  UNL1        0.0274
     43 H           6.1285    2.3213    0.0000 H       1  UNL1        0.0274
     44 H           8.9518    1.7472    0.0000 H       1  UNL1        0.0361
     45 H           5.3787    0.8347    0.0000 H       1  UNL1        0.0235
     46 H           4.7635    1.4594    0.0000 H       1  UNL1        0.0235
     47 H           4.1388    0.8442    0.0000 H       1  UNL1        0.0235
     48 H           7.0831   -1.1906    0.0000 H       1  UNL1        0.0239
     49 H           7.9300   -0.9637    0.0000 H       1  UNL1        0.0239
     50 H           7.7031   -0.1168    0.0000 H       1  UNL1        0.0239
     51 H           2.6718    0.4609    0.0000 H       1  UNL1        0.0342
     52 H           2.2647   -0.2258    0.0000 H       1  UNL1        0.0342
     53 H           8.5319   -0.5477    0.0000 H       1  UNL1        0.0572
     54 H           9.3838    0.4316    0.0000 H       1  UNL1        0.0314
     55 H           9.3838    1.2610    0.0000 H       1  UNL1        0.0314
     56 H           8.0131    2.3463    0.0000 H       1  UNL1        0.0238
     57 H           7.3931    2.9663    0.0000 H       1  UNL1        0.0238
     58 H           6.7731    2.3463    0.0000 H       1  UNL1        0.0238
     59 H           2.7728   -2.3119    0.0000 H       1  UNL1        0.0239
     60 H           3.0030   -3.1579    0.0000 H       1  UNL1        0.0239
     61 H           3.8490   -2.9277    0.0000 H       1  UNL1        0.0239
     62 H           3.7752   -2.9280    0.0000 H       1  UNL1        0.0239
     63 H           4.6230   -3.1517    0.0000 H       1  UNL1        0.0239
     64 H           4.8466   -2.3039    0.0000 H       1  UNL1        0.0239
     65 H           7.9482   -1.3690    0.0000 H       1  UNL1        0.2100
     66 H          10.1025    2.5436    0.0000 H       1  UNL1        0.0652
     67 H           7.4436    3.4127    0.0000 H       1  UNL1        0.1032
     68 H          10.1055    4.2725    0.0000 H       1  UNL1        0.1029
     69 H           5.9007   -4.2220    0.0000 H       1  UNL1        0.0342
     70 H           6.5231   -4.8396    0.0000 H       1  UNL1        0.0342
     71 H           7.1407   -4.2172    0.0000 H       1  UNL1        0.0342
@<TRIPOS>BOND
     1    12     1    1
     2     1    29    1
     3    11     2    1
     4     2    65    1
     5     3    23    2
     6     4    31   ar
     7     4    32   ar
     8     5    29    2
     9     6     7    1
    10     6     8    1
    11     6    14    1
    12     6    34    1
    13     7     9    1
    14     7    16    1
    15     7    19    1
    16     8    11    1
    17     8    13    1
    18     8    20    1
    19     9    12    1
    20     9    15    1
    21     9    35    1
    22    10    13    1
    23    10    17    1
    24    10    18    1
    25    10    25    1
    26    11    12    1
    27    11    36    1
    28    12    37    1
    29    13    22    2
    30    14    17    1
    31    14    38    1
    32    14    39    1
    33    15    23    1
    34    15    26    1
    35    15    27    1
    36    16    21    1
    37    16    40    1
    38    16    41    1
    39    17    42    1
    40    17    43    1
    41    18    24    1
    42    18    28    1
    43    18    44    1
    44    19    45    1
    45    19    46    1
    46    19    47    1
    47    20    48    1
    48    20    49    1
    49    20    50    1
    50    21    23    1
    51    21    51    1
    52    21    52    1
    53    22    24    1
    54    22    53    1
    55    24    54    1
    56    24    55    1
    57    25    56    1
    58    25    57    1
    59    25    58    1
    60    26    59    1
    61    26    60    1
    62    26    61    1
    63    27    62    1
    64    27    63    1
    65    27    64    1
    66    28    30   ar
    67    28    31   ar
    68    29    33    1
    69    30    32   ar
    70    30    66    1
    71    31    67    1
    72    32    68    1
    73    33    69    1
    74    33    70    1
    75    33    71    1
