@<TRIPOS>MOLECULE
IMPHY015684
 45 46 0 0 0
SMALL
GASTEIGER

@<TRIPOS>ATOM
      1 O           8.1679   -2.6299    0.0000 O.3     1  UNL1       -0.4604
      2 O           9.8904   -2.4489    0.0000 O.2     1  UNL1       -0.2512
      3 C           3.7147    2.0827    0.0000 C.3     1  UNL1       -0.0314
      4 C           5.1137    1.5738    0.0000 C.3     1  UNL1       -0.0079
      5 C           3.9735    3.0486    0.0000 C.3     1  UNL1       -0.0193
      6 C           3.2369    4.0312    0.0000 C.3     1  UNL1       -0.0429
      7 C           2.3420    1.4906    0.0000 C.3     1  UNL1       -0.0489
      8 C           5.3725    2.5398    0.0000 C.2     1  UNL1       -0.0673
      9 C           2.0000    2.4303    0.0000 C.3     1  UNL1       -0.0462
     10 C           6.0272    1.1671    0.0000 C.3     1  UNL1       -0.0402
     11 C           5.0091    0.5793    0.0000 C.3     1  UNL1       -0.0556
     12 C           6.2385    3.0398    0.0000 C.2     1  UNL1       -0.0987
     13 C           6.1317    0.1726    0.0000 C.3     1  UNL1       -0.0336
     14 C           7.0453   -0.2342    0.0000 C.2     1  UNL1       -0.0818
     15 C           7.1498   -1.2287    0.0000 C.2     1  UNL1       -0.0396
     16 C           8.0634   -1.6354    0.0000 C.3     1  UNL1        0.1133
     17 C           6.3408   -1.8165    0.0000 C.3     1  UNL1       -0.0406
     18 C           9.0814   -3.0367    0.0000 C.2     1  UNL1        0.3042
     19 C           9.1860   -4.0312    0.0000 C.3     1  UNL1        0.0332
     20 H           3.4947    1.2616    0.0000 H       1  UNL1        0.0309
     21 H           4.1935    3.8696    0.0000 H       1  UNL1        0.0346
     22 H           3.5547    4.5636    0.0000 H       1  UNL1        0.0274
     23 H           2.6238    4.1232    0.0000 H       1  UNL1        0.0274
     24 H           1.7636    1.2673    0.0000 H       1  UNL1        0.0268
     25 H           2.5765    0.9167    0.0000 H       1  UNL1        0.0268
     26 H           1.8057    3.0191    0.0000 H       1  UNL1        0.0271
     27 H           1.4142    2.2271    0.0000 H       1  UNL1        0.0271
     28 H           6.6457    1.1238    0.0000 H       1  UNL1        0.0277
     29 H           6.1772    1.7687    0.0000 H       1  UNL1        0.0277
     30 H           4.3925    0.6441    0.0000 H       1  UNL1        0.0238
     31 H           4.9443   -0.0373    0.0000 H       1  UNL1        0.0238
     32 H           5.6257    0.5145    0.0000 H       1  UNL1        0.0238
     33 H           6.7754    2.7298    0.0000 H       1  UNL1        0.0535
     34 H           6.2385    3.6598    0.0000 H       1  UNL1        0.0535
     35 H           5.5132    0.2158    0.0000 H       1  UNL1        0.0308
     36 H           5.9818   -0.4290    0.0000 H       1  UNL1        0.0308
     37 H           7.5469    0.1303    0.0000 H       1  UNL1        0.0573
     38 H           8.6819   -1.6787    0.0000 H       1  UNL1        0.0745
     39 H           8.2134   -1.0338    0.0000 H       1  UNL1        0.0745
     40 H           5.9764   -1.3149    0.0000 H       1  UNL1        0.0275
     41 H           5.8392   -2.1809    0.0000 H       1  UNL1        0.0275
     42 H           6.7052   -2.3181    0.0000 H       1  UNL1        0.0275
     43 H           8.5694   -4.0960    0.0000 H       1  UNL1        0.0342
     44 H           9.2508   -4.6478    0.0000 H       1  UNL1        0.0342
     45 H           9.8026   -3.9664    0.0000 H       1  UNL1        0.0342
@<TRIPOS>BOND
     1     1    16    1
     2     1    18    1
     3     2    18    2
     4     3     4    1
     5     3     6    1
     6     3     7    1
     7     3    20    1
     8     4     8    1
     9     4    10    1
    10     4    11    1
    11     5     6    1
    12     5     8    1
    13     5     9    1
    14     5    21    1
    15     6    22    1
    16     6    23    1
    17     7     9    1
    18     7    24    1
    19     7    25    1
    20     8    12    2
    21     9    26    1
    22     9    27    1
    23    10    13    1
    24    10    28    1
    25    10    29    1
    26    11    30    1
    27    11    31    1
    28    11    32    1
    29    12    33    1
    30    12    34    1
    31    13    14    1
    32    13    35    1
    33    13    36    1
    34    14    15    2
    35    14    37    1
    36    15    16    1
    37    15    17    1
    38    16    38    1
    39    16    39    1
    40    17    40    1
    41    17    41    1
    42    17    42    1
    43    18    19    1
    44    19    43    1
    45    19    44    1
    46    19    45    1
