@<TRIPOS>MOLECULE
IMPHY003401
 30 31 0 0 0
SMALL
GASTEIGER

@<TRIPOS>ATOM
      1 O           2.5258   -2.5072    0.0000 O.3     1  UNL1       -0.3947
      2 C           5.9240    0.8960    0.0000 C.3     1  UNL1       -0.0253
      3 C           4.7839    1.8531    0.0000 C.3     1  UNL1       -0.0314
      4 C           4.5251    0.8872    0.0000 C.3     1  UNL1       -0.0141
      5 C           4.0473    2.8357    0.0000 C.3     1  UNL1       -0.0424
      6 C           2.7506    1.5420    0.0000 C.3     1  UNL1       -0.0311
      7 C           3.3040    0.0215    0.0000 C.2     1  UNL1       -0.0677
      8 C           6.4240    0.0300    0.0000 C.3     1  UNL1       -0.0590
      9 C           6.7900    1.3960    0.0000 C.3     1  UNL1       -0.0590
     10 C           2.4750    0.5807    0.0000 C.2     1  UNL1       -0.0841
     11 C           3.3389   -0.9779    0.0000 C.3     1  UNL1       -0.0082
     12 C           2.4909   -1.5078    0.0000 C.3     1  UNL1        0.0479
     13 H           5.4012    2.4374    0.0000 H       1  UNL1        0.0309
     14 H           4.7856    0.0781    0.0000 H       1  UNL1        0.0351
     15 H           4.3651    3.3681    0.0000 H       1  UNL1        0.0274
     16 H           3.4341    2.9277    0.0000 H       1  UNL1        0.0274
     17 H           2.7456    2.1620    0.0000 H       1  UNL1        0.0310
     18 H           2.1363    1.6258    0.0000 H       1  UNL1        0.0310
     19 H           5.8871   -0.2800    0.0000 H       1  UNL1        0.0235
     20 H           6.7340   -0.5070    0.0000 H       1  UNL1        0.0235
     21 H           6.9609    0.3400    0.0000 H       1  UNL1        0.0235
     22 H           7.1000    0.8591    0.0000 H       1  UNL1        0.0235
     23 H           7.3270    1.7060    0.0000 H       1  UNL1        0.0235
     24 H           6.4800    1.9329    0.0000 H       1  UNL1        0.0235
     25 H           1.8924    0.3687    0.0000 H       1  UNL1        0.0572
     26 H           3.5712   -1.5527    0.0000 H       1  UNL1        0.0332
     27 H           3.9454   -0.8490    0.0000 H       1  UNL1        0.0332
     28 H           2.2586   -0.9329    0.0000 H       1  UNL1        0.0560
     29 H           1.8844   -1.6367    0.0000 H       1  UNL1        0.0560
     30 H           2.0000   -2.8357    0.0000 H       1  UNL1        0.2094
@<TRIPOS>BOND
     1     1    12    1
     2     1    30    1
     3     2     3    1
     4     2     4    1
     5     2     8    1
     6     2     9    1
     7     3     5    1
     8     3     6    1
     9     3    13    1
    10     4     5    1
    11     4     7    1
    12     4    14    1
    13     5    15    1
    14     5    16    1
    15     6    10    1
    16     6    17    1
    17     6    18    1
    18     7    10    2
    19     7    11    1
    20     8    19    1
    21     8    20    1
    22     8    21    1
    23     9    22    1
    24     9    23    1
    25     9    24    1
    26    10    25    1
    27    11    12    1
    28    11    26    1
    29    11    27    1
    30    12    28    1
    31    12    29    1
