@<TRIPOS>MOLECULE
IMPHY002009
 130 138 0 0 0
SMALL
GASTEIGER

@<TRIPOS>ATOM
      1 O           9.1562    5.5403    0.0000 O.3     1  UNL1       -0.3448
      2 O           7.3837    6.4351    0.0000 O.3     1  UNL1       -0.3480
      3 O           7.7331   -2.7038    0.0000 O.3     1  UNL1       -0.3451
      4 O           6.0010   -2.7038    0.0000 O.3     1  UNL1       -0.3405
      5 O           7.7331   -4.7038    0.0000 O.3     1  UNL1       -0.3378
      6 O           6.0010   -5.7038    0.0000 O.3     1  UNL1       -0.3401
      7 O           4.2690   -4.7038    0.0000 O.3     1  UNL1       -0.3865
      8 O           8.5991   -3.2038    0.0000 O.3     1  UNL1       -0.3431
      9 O           4.2690   -1.7038    0.0000 O.3     1  UNL1       -0.3924
     10 O           4.2690   -5.7038    0.0000 O.3     1  UNL1       -0.3461
     11 O           9.4651   -5.7038    0.0000 O.3     1  UNL1       -0.3841
     12 O          11.1972   -4.7038    0.0000 O.3     1  UNL1       -0.3864
     13 O           6.0010   -7.7038    0.0000 O.3     1  UNL1       -0.3841
     14 O          11.1972   -2.7038    0.0000 O.3     1  UNL1       -0.3866
     15 O           4.2690   -8.7038    0.0000 O.3     1  UNL1       -0.3864
     16 O           2.5369   -7.7038    0.0000 O.3     1  UNL1       -0.3869
     17 C           7.7624    3.4931    0.0000 C.3     1  UNL1       -0.0233
     18 C           8.6303    2.9965    0.0000 C.3     1  UNL1       -0.0295
     19 C           7.9678    4.4657    0.0000 C.3     1  UNL1       -0.0015
     20 C           8.6342    1.9965    0.0000 C.3     1  UNL1       -0.0306
     21 C           8.9561    4.5726    0.0000 C.3     1  UNL1        0.0660
     22 C           7.7701    1.4931    0.0000 C.3     1  UNL1       -0.0285
     23 C           9.3647    3.6664    0.0000 C.3     1  UNL1       -0.0226
     24 C           6.8983    2.9898    0.0000 C.3     1  UNL1       -0.0467
     25 C           7.5655    5.3683    0.0000 C.3     1  UNL1        0.0160
     26 C           6.9021    1.9898    0.0000 C.3     1  UNL1       -0.0486
     27 C           7.7580    0.4516    0.0000 C.3     1  UNL1       -0.0078
     28 C           8.2985    6.0311    0.0000 C.3     1  UNL1        0.1732
     29 C           6.8944    3.9898    0.0000 C.3     1  UNL1       -0.0590
     30 C           9.5461    1.4931    0.0000 C.3     1  UNL1       -0.0311
     31 C           8.6581   -0.0727    0.0000 C.2     1  UNL1       -0.0648
     32 C           6.8081   -0.0727    0.0000 C.3     1  UNL1       -0.0413
     33 C           6.5871    5.5750    0.0000 C.3     1  UNL1       -0.0572
     34 C           9.1057    6.6213    0.0000 C.3     1  UNL1        0.0020
     35 C           9.5581    0.4516    0.0000 C.2     1  UNL1       -0.0839
     36 C           6.8939    0.9549    0.0000 C.3     1  UNL1       -0.0556
     37 C           8.6706   -1.1576    0.0000 C.3     1  UNL1       -0.0047
     38 C           6.7956   -1.1576    0.0000 C.3     1  UNL1       -0.0254
     39 C           7.7331   -1.7038    0.0000 C.3     1  UNL1        0.0655
     40 C           8.9982    7.6155    0.0000 C.3     1  UNL1       -0.0435
     41 C           8.0835    8.0195    0.0000 C.3     1  UNL1       -0.0201
     42 C           7.2762    7.4293    0.0000 C.3     1  UNL1        0.0535
     43 C           7.9760    9.0138    0.0000 C.3     1  UNL1       -0.0603
     44 C           6.8671   -3.2038    0.0000 C.3     1  UNL1        0.1886
     45 C           6.8671   -4.2038    0.0000 C.3     1  UNL1        0.1410
     46 C           6.0010   -4.7038    0.0000 C.3     1  UNL1        0.1209
     47 C           5.1350   -3.2038    0.0000 C.3     1  UNL1        0.1130
     48 C           5.1350   -4.2038    0.0000 C.3     1  UNL1        0.1123
     49 C           4.2690   -2.7038    0.0000 C.3     1  UNL1        0.0730
     50 C           8.5991   -4.2038    0.0000 C.3     1  UNL1        0.1884
     51 C           5.1350   -6.2038    0.0000 C.3     1  UNL1        0.1880
     52 C           9.4651   -4.7038    0.0000 C.3     1  UNL1        0.1341
     53 C          10.3312   -4.2038    0.0000 C.3     1  UNL1        0.1140
     54 C           5.1350   -7.2038    0.0000 C.3     1  UNL1        0.1341
     55 C           9.4651   -2.7038    0.0000 C.3     1  UNL1        0.0873
     56 C          10.3312   -3.2038    0.0000 C.3     1  UNL1        0.1095
     57 C           4.2690   -7.7038    0.0000 C.3     1  UNL1        0.1137
     58 C           3.4030   -6.2038    0.0000 C.3     1  UNL1        0.0792
     59 C           3.4030   -7.2038    0.0000 C.3     1  UNL1        0.1069
     60 C           9.4651   -1.7038    0.0000 C.3     1  UNL1       -0.0361
     61 H           9.4086    2.6548    0.0000 H       1  UNL1        0.0310
     62 H           7.1225    4.3762    0.0000 H       1  UNL1        0.0335
     63 H           9.3653    2.4300    0.0000 H       1  UNL1        0.0310
     64 H           9.8010    4.6658    0.0000 H       1  UNL1        0.0600
     65 H           8.5045    1.0653    0.0000 H       1  UNL1        0.0312
     66 H           9.7321    3.1670    0.0000 H       1  UNL1        0.0293
     67 H           9.9000    3.9792    0.0000 H       1  UNL1        0.0293
     68 H           6.6840    3.5716    0.0000 H       1  UNL1        0.0271
     69 H           6.2881    2.8798    0.0000 H       1  UNL1        0.0271
     70 H           7.4040    5.9669    0.0000 H       1  UNL1        0.0354
     71 H           6.2911    2.0951    0.0000 H       1  UNL1        0.0268
     72 H           6.6923    1.4064    0.0000 H       1  UNL1        0.0268
     73 H           7.2023    4.5279    0.0000 H       1  UNL1        0.0235
     74 H           6.3563    4.2977    0.0000 H       1  UNL1        0.0235
     75 H           6.5865    3.4517    0.0000 H       1  UNL1        0.0235
     76 H          10.1581    1.3941    0.0000 H       1  UNL1        0.0310
     77 H           9.7484    2.0792    0.0000 H       1  UNL1        0.0310
     78 H           6.6058    0.5134    0.0000 H       1  UNL1        0.0274
     79 H           6.1961   -0.1717    0.0000 H       1  UNL1        0.0274
     80 H           6.7152    6.1816    0.0000 H       1  UNL1        0.0234
     81 H           5.9805    5.7032    0.0000 H       1  UNL1        0.0234
     82 H           6.4590    4.9684    0.0000 H       1  UNL1        0.0234
     83 H           9.3792    6.0649    0.0000 H       1  UNL1        0.0317
     84 H           9.7012    6.7940    0.0000 H       1  UNL1        0.0317
     85 H          10.0975    0.1457    0.0000 H       1  UNL1        0.0572
     86 H           7.2060    1.4906    0.0000 H       1  UNL1        0.0238
     87 H           6.3582    1.2670    0.0000 H       1  UNL1        0.0238
     88 H           6.5818    0.4192    0.0000 H       1  UNL1        0.0238
     89 H           8.8864   -1.7389    0.0000 H       1  UNL1        0.0335
     90 H           9.2802   -1.0445    0.0000 H       1  UNL1        0.0335
     91 H           6.1860   -1.0445    0.0000 H       1  UNL1        0.0290
     92 H           6.5798   -1.7389    0.0000 H       1  UNL1        0.0290
     93 H           8.2706   -2.0127    0.0000 H       1  UNL1        0.0600
     94 H           9.6168    7.5741    0.0000 H       1  UNL1        0.0270
     95 H           9.1464    8.2176    0.0000 H       1  UNL1        0.0270
     96 H           8.5840    8.3855    0.0000 H       1  UNL1        0.0320
     97 H           7.0028    7.9858    0.0000 H       1  UNL1        0.0563
     98 H           6.6808    7.2567    0.0000 H       1  UNL1        0.0563
     99 H           8.5924    9.0804    0.0000 H       1  UNL1        0.0233
    100 H           7.9093    9.6302    0.0000 H       1  UNL1        0.0233
    101 H           7.3596    8.9471    0.0000 H       1  UNL1        0.0233
    102 H           7.4040   -3.5138    0.0000 H       1  UNL1        0.0938
    103 H           6.8671   -4.8238    0.0000 H       1  UNL1        0.0675
    104 H           5.4641   -5.0138    0.0000 H       1  UNL1        0.0651
    105 H           5.1350   -2.5838    0.0000 H       1  UNL1        0.0647
    106 H           4.5981   -3.8938    0.0000 H       1  UNL1        0.0647
    107 H           3.6584   -2.5961    0.0000 H       1  UNL1        0.0584
    108 H           4.0569   -3.2864    0.0000 H       1  UNL1        0.0584
    109 H           8.5991   -4.8238    0.0000 H       1  UNL1        0.0938
    110 H           3.7320   -4.3938    0.0000 H       1  UNL1        0.2100
    111 H           5.1350   -5.5838    0.0000 H       1  UNL1        0.0937
    112 H          10.0021   -5.0138    0.0000 H       1  UNL1        0.0671
    113 H          10.8681   -3.8938    0.0000 H       1  UNL1        0.0648
    114 H           5.1350   -7.8238    0.0000 H       1  UNL1        0.0671
    115 H           3.7320   -1.3938    0.0000 H       1  UNL1        0.2095
    116 H           8.9282   -2.3938    0.0000 H       1  UNL1        0.0621
    117 H          10.3312   -2.5838    0.0000 H       1  UNL1        0.0646
    118 H           3.7320   -8.0138    0.0000 H       1  UNL1        0.0647
    119 H          10.0021   -6.0138    0.0000 H       1  UNL1        0.2101
    120 H           3.1909   -5.6211    0.0000 H       1  UNL1        0.0587
    121 H           2.7924   -6.3114    0.0000 H       1  UNL1        0.0587
    122 H           2.8660   -6.8938    0.0000 H       1  UNL1        0.0643
    123 H          10.0851   -1.7038    0.0000 H       1  UNL1        0.0255
    124 H           9.4651   -1.0838    0.0000 H       1  UNL1        0.0255
    125 H           8.8451   -1.7038    0.0000 H       1  UNL1        0.0255
    126 H          11.7341   -4.3938    0.0000 H       1  UNL1        0.2100
    127 H           6.0010   -8.3238    0.0000 H       1  UNL1        0.2101
    128 H          11.7341   -3.0138    0.0000 H       1  UNL1        0.2100
    129 H           3.7320   -9.0138    0.0000 H       1  UNL1        0.2100
    130 H           2.0000   -7.3938    0.0000 H       1  UNL1        0.2100
@<TRIPOS>BOND
     1     1    21    1
     2    28     1    1
     3     2    28    1
     4     2    42    1
     5    39     3    1
     6    44     3    1
     7     4    44    1
     8     4    47    1
     9    45     5    1
    10    50     5    1
    11    46     6    1
    12    51     6    1
    13    48     7    1
    14     7   110    1
    15     8    50    1
    16     8    55    1
    17     9    49    1
    18     9   115    1
    19    10    51    1
    20    10    58    1
    21    52    11    1
    22    11   119    1
    23    53    12    1
    24    12   126    1
    25    54    13    1
    26    13   127    1
    27    56    14    1
    28    14   128    1
    29    57    15    1
    30    15   129    1
    31    59    16    1
    32    16   130    1
    33    17    18    1
    34    17    19    1
    35    17    24    1
    36    17    29    1
    37    18    20    1
    38    18    23    1
    39    18    61    1
    40    19    21    1
    41    19    25    1
    42    19    62    1
    43    20    22    1
    44    20    30    1
    45    20    63    1
    46    21    23    1
    47    21    64    1
    48    22    26    1
    49    22    27    1
    50    22    65    1
    51    23    66    1
    52    23    67    1
    53    24    26    1
    54    24    68    1
    55    24    69    1
    56    25    28    1
    57    25    33    1
    58    25    70    1
    59    26    71    1
    60    26    72    1
    61    27    31    1
    62    27    32    1
    63    27    36    1
    64    28    34    1
    65    29    73    1
    66    29    74    1
    67    29    75    1
    68    30    35    1
    69    30    76    1
    70    30    77    1
    71    31    35    2
    72    31    37    1
    73    32    38    1
    74    32    78    1
    75    32    79    1
    76    33    80    1
    77    33    81    1
    78    33    82    1
    79    34    40    1
    80    34    83    1
    81    34    84    1
    82    35    85    1
    83    36    86    1
    84    36    87    1
    85    36    88    1
    86    37    39    1
    87    37    89    1
    88    37    90    1
    89    38    39    1
    90    38    91    1
    91    38    92    1
    92    39    93    1
    93    40    41    1
    94    40    94    1
    95    40    95    1
    96    41    42    1
    97    41    43    1
    98    41    96    1
    99    42    97    1
   100    42    98    1
   101    43    99    1
   102    43   100    1
   103    43   101    1
   104    44    45    1
   105    44   102    1
   106    45    46    1
   107    45   103    1
   108    46    48    1
   109    46   104    1
   110    47    48    1
   111    47    49    1
   112    47   105    1
   113    48   106    1
   114    49   107    1
   115    49   108    1
   116    50    52    1
   117    50   109    1
   118    51    54    1
   119    51   111    1
   120    52    53    1
   121    52   112    1
   122    53    56    1
   123    53   113    1
   124    54    57    1
   125    54   114    1
   126    55    56    1
   127    55    60    1
   128    55   116    1
   129    56   117    1
   130    57    59    1
   131    57   118    1
   132    58    59    1
   133    58   120    1
   134    58   121    1
   135    59   122    1
   136    60   123    1
   137    60   124    1
   138    60   125    1
