@<TRIPOS>MOLECULE
IMPHY005534
 31 34 0 0 0
SMALL
GASTEIGER

@<TRIPOS>ATOM
      1 O           8.0944    1.3150    0.0000 O.2     1  UNL1       -0.4627
      2 O           6.4144   -1.9411    0.0000 O.3     1  UNL1       -0.5059
      3 O           4.6660   -1.9065    0.0000 O.2     1  UNL1       -0.2864
      4 N           4.6660    1.0935    0.0000 N.ar    1  UNL1       -0.3421
      5 C           5.5321    0.5935    0.0000 C.ar    1  UNL1        0.0673
      6 C           5.5321   -0.4065    0.0000 C.ar    1  UNL1        0.0879
      7 C           6.4260    1.1281    0.0000 C.ar    1  UNL1        0.0445
      8 C           3.8000    0.5935    0.0000 C.ar    1  UNL1        0.0529
      9 C           3.8000   -0.4065    0.0000 C.ar    1  UNL1        0.0459
     10 C           4.6660   -0.9065    0.0000 C.ar    1  UNL1        0.2006
     11 C           7.3321    0.6143    0.0000 C.ar    1  UNL1        0.1403
     12 C           6.4260   -0.9412    0.0000 C.ar    1  UNL1        0.1332
     13 C           7.3321   -0.4274    0.0000 C.ar    1  UNL1        0.0236
     14 C           4.6660    2.0935    0.0000 C.3     1  UNL1        0.0124
     15 C           6.6361    2.1420    0.0000 C.ar    1  UNL1       -0.0141
     16 C           2.9061    1.1281    0.0000 C.ar    1  UNL1       -0.0375
     17 C           2.9061   -0.9412    0.0000 C.ar    1  UNL1       -0.0489
     18 C           7.6651    2.2573    0.0000 C.ar    1  UNL1        0.0932
     19 C           2.0000    0.6143    0.0000 C.ar    1  UNL1       -0.0598
     20 C           2.0000   -0.4274    0.0000 C.ar    1  UNL1       -0.0610
     21 H           7.8678   -0.7394    0.0000 H       1  UNL1        0.0691
     22 H           5.2860    2.0935    0.0000 H       1  UNL1        0.0456
     23 H           4.6660    2.7135    0.0000 H       1  UNL1        0.0456
     24 H           4.0460    2.0935    0.0000 H       1  UNL1        0.0456
     25 H           6.2185    2.6003    0.0000 H       1  UNL1        0.0656
     26 H           2.9132    1.7481    0.0000 H       1  UNL1        0.0638
     27 H           2.9132   -1.5612    0.0000 H       1  UNL1        0.0625
     28 H           7.9710    2.7966    0.0000 H       1  UNL1        0.1030
     29 H           1.4643    0.9263    0.0000 H       1  UNL1        0.0618
     30 H           1.4643   -0.7394    0.0000 H       1  UNL1        0.0618
     31 H           6.9478   -2.2573    0.0000 H       1  UNL1        0.2922
@<TRIPOS>BOND
     1     1    11   ar
     2     1    18   ar
     3     2    12    1
     4     2    31    1
     5     3    10    2
     6     4     5   ar
     7     4     8   ar
     8     4    14    1
     9     5     6   ar
    10     5     7   ar
    11     6    10   ar
    12     6    12   ar
    13     7    11   ar
    14     7    15   ar
    15     8     9   ar
    16     8    16   ar
    17     9    10   ar
    18     9    17   ar
    19    11    13   ar
    20    12    13   ar
    21    13    21    1
    22    14    22    1
    23    14    23    1
    24    14    24    1
    25    15    18   ar
    26    15    25    1
    27    16    19   ar
    28    16    26    1
    29    17    20   ar
    30    17    27    1
    31    18    28    1
    32    19    20   ar
    33    19    29    1
    34    20    30    1
