@<TRIPOS>MOLECULE
IMPHY001471
 38 41 0 0 0
SMALL
GASTEIGER

@<TRIPOS>ATOM
      1 O           4.2974   -3.0626    0.0000 O.3     1  UNL1       -0.4779
      2 O           4.3217    1.0917    0.0000 O.2     1  UNL1       -0.4542
      3 O           2.5357   -1.9534    0.0000 O.3     1  UNL1       -0.5032
      4 O           6.9198   -0.4083    0.0000 O.2     1  UNL1       -0.2863
      5 O           7.8240    1.0885    0.0000 O.3     1  UNL1       -0.5058
      6 O           6.0659    4.1609    0.0000 O.3     1  UNL1       -0.5065
      7 C           5.2370   -3.6050    0.0000 C.3     1  UNL1        0.1237
      8 C           5.2038   -1.4498    0.0000 C.ar    1  UNL1        0.0345
      9 C           4.3058   -1.9776    0.0000 C.ar    1  UNL1        0.1709
     10 C           5.1877   -0.4083    0.0000 C.ar    1  UNL1        0.0755
     11 C           6.1725   -3.0553    0.0000 C.2     1  UNL1       -0.0409
     12 C           6.1557   -1.9705    0.0000 C.2     1  UNL1       -0.0504
     13 C           4.3217    0.0917    0.0000 C.ar    1  UNL1        0.1435
     14 C           5.7404   -4.4691    0.0000 C.3     1  UNL1       -0.0215
     15 C           4.7404   -4.4730    0.0000 C.3     1  UNL1       -0.0215
     16 C           3.4037   -1.4568    0.0000 C.ar    1  UNL1        0.1627
     17 C           6.0538    0.0917    0.0000 C.ar    1  UNL1        0.2044
     18 C           6.0538    1.0917    0.0000 C.ar    1  UNL1        0.1061
     19 C           3.4117   -0.4152    0.0000 C.ar    1  UNL1        0.0266
     20 C           5.1877    1.5917    0.0000 C.ar    1  UNL1        0.1463
     21 C           6.9638    1.5985    0.0000 C.ar    1  UNL1        0.1347
     22 C           5.1717    2.6332    0.0000 C.ar    1  UNL1        0.0231
     23 C           6.9718    2.6401    0.0000 C.ar    1  UNL1        0.0223
     24 C           6.0697    3.1609    0.0000 C.ar    1  UNL1        0.1239
     25 H           6.7129   -3.3591    0.0000 H       1  UNL1        0.0611
     26 H           6.6866   -1.6502    0.0000 H       1  UNL1        0.0623
     27 H           5.2046   -4.7812    0.0000 H       1  UNL1        0.0271
     28 H           6.0524   -5.0049    0.0000 H       1  UNL1        0.0271
     29 H           6.2761   -4.1571    0.0000 H       1  UNL1        0.0271
     30 H           4.2022   -4.1651    0.0000 H       1  UNL1        0.0271
     31 H           4.4324   -5.0111    0.0000 H       1  UNL1        0.0271
     32 H           5.2785   -4.7809    0.0000 H       1  UNL1        0.0271
     33 H           2.8784   -0.0990    0.0000 H       1  UNL1        0.0692
     34 H           4.6312    2.9370    0.0000 H       1  UNL1        0.0691
     35 H           7.5099    2.9480    0.0000 H       1  UNL1        0.0691
     36 H           2.0000   -1.6414    0.0000 H       1  UNL1        0.2923
     37 H           8.3644    1.3923    0.0000 H       1  UNL1        0.2922
     38 H           6.6016    4.4730    0.0000 H       1  UNL1        0.2921
@<TRIPOS>BOND
     1     1     7    1
     2     1     9    1
     3     2    13   ar
     4     2    20   ar
     5     3    16    1
     6     3    36    1
     7     4    17    2
     8     5    21    1
     9     5    37    1
    10     6    24    1
    11     6    38    1
    12     7    11    1
    13     7    14    1
    14     7    15    1
    15     8     9   ar
    16     8    10   ar
    17     8    12    1
    18     9    16   ar
    19    10    13   ar
    20    10    17   ar
    21    11    12    2
    22    11    25    1
    23    12    26    1
    24    13    19   ar
    25    14    27    1
    26    14    28    1
    27    14    29    1
    28    15    30    1
    29    15    31    1
    30    15    32    1
    31    16    19   ar
    32    17    18   ar
    33    18    20   ar
    34    18    21   ar
    35    19    33    1
    36    20    22   ar
    37    21    23   ar
    38    22    24   ar
    39    22    34    1
    40    23    24   ar
    41    23    35    1
