@<TRIPOS>MOLECULE
IMPHY001765
 53 55 0 0 0
SMALL
GASTEIGER

@<TRIPOS>ATOM
      1 O           5.1350   -1.3796    0.0000 O.3     1  UNL1       -0.3313
      2 O           6.8671   -1.3796    0.0000 O.3     1  UNL1       -0.4607
      3 O           5.1350   -4.3796    0.0000 O.3     1  UNL1       -0.3864
      4 O           3.4030   -3.3796    0.0000 O.3     1  UNL1       -0.3865
      5 O           6.8671   -3.3796    0.0000 O.3     1  UNL1       -0.3829
      6 O           2.5369   -1.8796    0.0000 O.3     1  UNL1       -0.3924
      7 O           5.1208    1.6996    0.0000 O.3     1  UNL1       -0.4943
      8 O           6.0308    3.1929    0.0000 O.3     1  UNL1       -0.5053
      9 O           6.9026    4.6896    0.0000 O.2     1  UNL1       -0.2922
     10 C           5.1350   -3.3796    0.0000 C.3     1  UNL1        0.1152
     11 C           4.2690   -2.8796    0.0000 C.3     1  UNL1        0.1120
     12 C           6.0010   -2.8796    0.0000 C.3     1  UNL1        0.1454
     13 C           4.2690   -1.8796    0.0000 C.3     1  UNL1        0.1140
     14 C           6.0010   -1.8796    0.0000 C.3     1  UNL1        0.2308
     15 C           3.4030   -1.3796    0.0000 C.3     1  UNL1        0.0731
     16 C           6.8671   -0.3796    0.0000 C.ar    1  UNL1        0.1281
     17 C           7.7671    0.1447    0.0000 C.ar    1  UNL1       -0.0118
     18 C           7.7551    1.1863    0.0000 C.ar    1  UNL1       -0.0071
     19 C           6.8910    1.6896    0.0000 C.ar    1  UNL1        0.0661
     20 C           5.9670    0.1447    0.0000 C.ar    1  UNL1        0.0226
     21 C           5.9790    1.1863    0.0000 C.ar    1  UNL1        0.1348
     22 C           8.6230    1.6829    0.0000 C.ar    1  UNL1       -0.0500
     23 C           6.8948    2.6896    0.0000 C.ar    1  UNL1        0.1387
     24 C           8.6269    2.6829    0.0000 C.ar    1  UNL1       -0.0359
     25 C           7.7628    3.1862    0.0000 C.ar    1  UNL1        0.0621
     26 C           9.4948    3.1796    0.0000 C.3     1  UNL1       -0.0389
     27 C           7.7666    4.1862    0.0000 C.2     1  UNL1        0.1639
     28 C           8.6346    4.6829    0.0000 C.3     1  UNL1       -0.0013
     29 C           4.2472    1.2130    0.0000 C.3     1  UNL1        0.0788
     30 H           5.6720   -3.6896    0.0000 H       1  UNL1        0.0648
     31 H           4.2690   -3.4996    0.0000 H       1  UNL1        0.0647
     32 H           6.5380   -2.5696    0.0000 H       1  UNL1        0.0683
     33 H           4.2690   -1.2596    0.0000 H       1  UNL1        0.0647
     34 H           6.0010   -1.2596    0.0000 H       1  UNL1        0.1084
     35 H           3.8015   -0.9046    0.0000 H       1  UNL1        0.0584
     36 H           3.0044   -0.9046    0.0000 H       1  UNL1        0.0584
     37 H           4.5981   -4.6896    0.0000 H       1  UNL1        0.2100
     38 H           3.4030   -3.9996    0.0000 H       1  UNL1        0.2100
     39 H           6.8671   -3.9996    0.0000 H       1  UNL1        0.2102
     40 H           8.3064   -0.1611    0.0000 H       1  UNL1        0.0660
     41 H           2.0000   -1.5696    0.0000 H       1  UNL1        0.2095
     42 H           5.4277   -0.1611    0.0000 H       1  UNL1        0.0691
     43 H           9.1588    1.3709    0.0000 H       1  UNL1        0.0626
     44 H           9.8028    2.6414    0.0000 H       1  UNL1        0.0278
     45 H          10.0330    3.4875    0.0000 H       1  UNL1        0.0278
     46 H           9.1869    3.7177    0.0000 H       1  UNL1        0.0278
     47 H           6.0331    3.8129    0.0000 H       1  UNL1        0.2922
     48 H           8.9425    4.1448    0.0000 H       1  UNL1        0.0309
     49 H           9.1727    4.9908    0.0000 H       1  UNL1        0.0309
     50 H           8.3267    5.2210    0.0000 H       1  UNL1        0.0309
     51 H           3.9455    1.7546    0.0000 H       1  UNL1        0.0660
     52 H           3.7056    0.9113    0.0000 H       1  UNL1        0.0660
     53 H           4.5489    0.6713    0.0000 H       1  UNL1        0.0660
@<TRIPOS>BOND
     1     1    13    1
     2     1    14    1
     3    14     2    1
     4     2    16    1
     5    10     3    1
     6     3    37    1
     7    11     4    1
     8     4    38    1
     9    12     5    1
    10     5    39    1
    11     6    15    1
    12     6    41    1
    13     7    21    1
    14     7    29    1
    15     8    23    1
    16     8    47    1
    17     9    27    2
    18    10    11    1
    19    10    12    1
    20    10    30    1
    21    11    13    1
    22    11    31    1
    23    12    14    1
    24    12    32    1
    25    13    15    1
    26    13    33    1
    27    14    34    1
    28    15    35    1
    29    15    36    1
    30    16    17   ar
    31    16    20   ar
    32    17    18   ar
    33    17    40    1
    34    18    19   ar
    35    18    22   ar
    36    19    21   ar
    37    19    23   ar
    38    20    21   ar
    39    20    42    1
    40    22    24   ar
    41    22    43    1
    42    23    25   ar
    43    24    25   ar
    44    24    26    1
    45    25    27    1
    46    26    44    1
    47    26    45    1
    48    26    46    1
    49    27    28    1
    50    28    48    1
    51    28    49    1
    52    28    50    1
    53    29    51    1
    54    29    52    1
    55    29    53    1
