@<TRIPOS>MOLECULE
IMPHY009271
 52 55 0 0 0
SMALL
GASTEIGER

@<TRIPOS>ATOM
      1 O           5.1350   -2.7839    0.0000 O.3     1  UNL1       -0.3313
      2 O           6.8671   -2.7839    0.0000 O.3     1  UNL1       -0.4606
      3 O           5.1350   -5.7839    0.0000 O.3     1  UNL1       -0.3864
      4 O           3.4030   -4.7839    0.0000 O.3     1  UNL1       -0.3865
      5 O           6.8671   -4.7839    0.0000 O.3     1  UNL1       -0.3829
      6 O           2.5369   -3.2839    0.0000 O.3     1  UNL1       -0.3924
      7 O           8.6230    0.2786    0.0000 O.2     1  UNL1       -0.4618
      8 O           5.1208    0.2952    0.0000 O.3     1  UNL1       -0.5058
      9 O           6.0308    1.7886    0.0000 O.2     1  UNL1       -0.2863
     10 O           9.5064    4.7752    0.0000 O.3     1  UNL1       -0.5033
     11 O           7.7782    5.7819    0.0000 O.3     1  UNL1       -0.5033
     12 C           5.1350   -4.7839    0.0000 C.3     1  UNL1        0.1152
     13 C           4.2690   -4.2839    0.0000 C.3     1  UNL1        0.1120
     14 C           6.0010   -4.2839    0.0000 C.3     1  UNL1        0.1454
     15 C           4.2690   -3.2839    0.0000 C.3     1  UNL1        0.1140
     16 C           6.0010   -3.2839    0.0000 C.3     1  UNL1        0.2308
     17 C           3.4030   -2.7839    0.0000 C.3     1  UNL1        0.0731
     18 C           6.8671   -1.7839    0.0000 C.ar    1  UNL1        0.1310
     19 C           7.7671   -1.2596    0.0000 C.ar    1  UNL1        0.0234
     20 C           5.9670   -1.2596    0.0000 C.ar    1  UNL1        0.0226
     21 C           7.7551   -0.2181    0.0000 C.ar    1  UNL1        0.1454
     22 C           6.8910    0.2852    0.0000 C.ar    1  UNL1        0.1060
     23 C           5.9790   -0.2181    0.0000 C.ar    1  UNL1        0.1347
     24 C           6.8948    1.2852    0.0000 C.ar    1  UNL1        0.2037
     25 C           7.7628    1.7819    0.0000 C.ar    1  UNL1        0.0645
     26 C           8.6269    1.2786    0.0000 C.ar    1  UNL1        0.1038
     27 C           7.7666    2.7819    0.0000 C.ar    1  UNL1       -0.0076
     28 C           8.6346    3.2786    0.0000 C.ar    1  UNL1       -0.0086
     29 C           6.9026    3.2852    0.0000 C.ar    1  UNL1       -0.0501
     30 C           8.6384    4.2785    0.0000 C.ar    1  UNL1        0.1588
     31 C           6.9064    4.2852    0.0000 C.ar    1  UNL1       -0.0160
     32 C           7.7744    4.7819    0.0000 C.ar    1  UNL1        0.1582
     33 H           5.6720   -5.0939    0.0000 H       1  UNL1        0.0648
     34 H           4.2690   -4.9039    0.0000 H       1  UNL1        0.0647
     35 H           6.5380   -3.9739    0.0000 H       1  UNL1        0.0683
     36 H           4.2690   -2.6639    0.0000 H       1  UNL1        0.0647
     37 H           6.0010   -2.6639    0.0000 H       1  UNL1        0.1084
     38 H           3.8015   -2.3090    0.0000 H       1  UNL1        0.0584
     39 H           3.0044   -2.3090    0.0000 H       1  UNL1        0.0584
     40 H           4.5981   -6.0939    0.0000 H       1  UNL1        0.2100
     41 H           3.4030   -5.4039    0.0000 H       1  UNL1        0.2100
     42 H           6.8671   -5.4039    0.0000 H       1  UNL1        0.2102
     43 H           2.0000   -2.9739    0.0000 H       1  UNL1        0.2095
     44 H           8.3064   -1.5655    0.0000 H       1  UNL1        0.0691
     45 H           5.4277   -1.5655    0.0000 H       1  UNL1        0.0691
     46 H           9.1650    1.5865    0.0000 H       1  UNL1        0.1037
     47 H           4.5792   -0.0065    0.0000 H       1  UNL1        0.2922
     48 H           9.1703    2.9665    0.0000 H       1  UNL1        0.0661
     49 H           6.3644    2.9773    0.0000 H       1  UNL1        0.0625
     50 H           6.3707    4.5973    0.0000 H       1  UNL1        0.0655
     51 H          10.0421    4.4631    0.0000 H       1  UNL1        0.2923
     52 H           7.2425    6.0939    0.0000 H       1  UNL1        0.2923
@<TRIPOS>BOND
     1     1    15    1
     2     1    16    1
     3    16     2    1
     4     2    18    1
     5    12     3    1
     6     3    40    1
     7    13     4    1
     8     4    41    1
     9     5    14    1
    10     5    42    1
    11     6    17    1
    12     6    43    1
    13     7    21   ar
    14     7    26   ar
    15     8    23    1
    16     8    47    1
    17     9    24    2
    18    10    30    1
    19    10    51    1
    20    11    32    1
    21    11    52    1
    22    12    13    1
    23    12    14    1
    24    12    33    1
    25    13    15    1
    26    13    34    1
    27    14    16    1
    28    14    35    1
    29    15    17    1
    30    15    36    1
    31    16    37    1
    32    17    38    1
    33    17    39    1
    34    18    19   ar
    35    18    20   ar
    36    19    21   ar
    37    19    44    1
    38    20    23   ar
    39    20    45    1
    40    21    22   ar
    41    22    23   ar
    42    22    24   ar
    43    24    25   ar
    44    25    26   ar
    45    25    27    1
    46    26    46    1
    47    27    28   ar
    48    27    29   ar
    49    28    30   ar
    50    28    48    1
    51    29    31   ar
    52    29    49    1
    53    30    32   ar
    54    31    32   ar
    55    31    50    1
