@<TRIPOS>MOLECULE
IMPHY017042
 22 22 0 0 0
SMALL
GASTEIGER

@<TRIPOS>ATOM
      1 CL          4.3802   -1.4031    0.0000 Cl      1  UNL1       -0.1191
      2 O           5.1906    0.2797    0.0000 O.3     1  UNL1       -0.3903
      3 C           4.1906    0.2797    0.0000 C.3     1  UNL1        0.0714
      4 C           3.7568   -0.6213    0.0000 C.3     1  UNL1        0.0599
      5 C           3.7568    1.1806    0.0000 C.3     1  UNL1       -0.0255
      6 C           2.7818   -0.8438    0.0000 C.3     1  UNL1       -0.0343
      7 C           2.7818    1.4031    0.0000 C.3     1  UNL1       -0.0507
      8 C           2.0000   -0.2203    0.0000 C.3     1  UNL1       -0.0517
      9 C           2.0000    0.7797    0.0000 C.3     1  UNL1       -0.0529
     10 H           4.5205    0.8046    0.0000 H       1  UNL1        0.0608
     11 H           4.3729   -0.5519    0.0000 H       1  UNL1        0.0491
     12 H           4.3612    1.3186    0.0000 H       1  UNL1        0.0290
     13 H           3.7568    1.8006    0.0000 H       1  UNL1        0.0290
     14 H           2.2971   -1.2304    0.0000 H       1  UNL1        0.0280
     15 H           3.0508   -1.4024    0.0000 H       1  UNL1        0.0280
     16 H           3.0508    1.9618    0.0000 H       1  UNL1        0.0266
     17 H           2.2971    1.7897    0.0000 H       1  UNL1        0.0266
     18 H           1.3955   -0.0824    0.0000 H       1  UNL1        0.0266
     19 H           1.7310   -0.7789    0.0000 H       1  UNL1        0.0266
     20 H           1.7310    1.3383    0.0000 H       1  UNL1        0.0265
     21 H           1.3955    0.6417    0.0000 H       1  UNL1        0.0265
     22 H           5.5006    0.8166    0.0000 H       1  UNL1        0.2098
@<TRIPOS>BOND
     1     4     1    1
     2     3     2    1
     3     2    22    1
     4     3     4    1
     5     3     5    1
     6     3    10    1
     7     4     6    1
     8     4    11    1
     9     5     7    1
    10     5    12    1
    11     5    13    1
    12     6     8    1
    13     6    14    1
    14     6    15    1
    15     7     9    1
    16     7    16    1
    17     7    17    1
    18     8     9    1
    19     8    18    1
    20     8    19    1
    21     9    20    1
    22     9    21    1
