@<TRIPOS>MOLECULE
IMPHY010915
 37 39 0 0 0
SMALL
GASTEIGER

@<TRIPOS>ATOM
      1 O           3.7230   -1.0372    0.0000 O.3     1  UNL1       -0.4598
      2 O           4.5447    2.1282    0.0000 O.3     1  UNL1       -0.3911
      3 O           2.0000   -0.6050    0.0000 O.2     1  UNL1       -0.2505
      4 O           8.0559   -1.1173    0.0000 O.2     1  UNL1       -0.2876
      5 C           4.3551    0.4454    0.0000 C.3     1  UNL1        0.0359
      6 C           4.5777   -0.5295    0.0000 C.3     1  UNL1        0.1195
      7 C           5.4786   -0.9634    0.0000 C.3     1  UNL1        0.0463
      8 C           3.3648    0.5319    0.0000 C.3     1  UNL1        0.0622
      9 C           4.9786    1.2272    0.0000 C.3     1  UNL1        0.0659
     10 C           6.3796   -0.5295    0.0000 C.2     1  UNL1        0.0089
     11 C           5.9786    1.2272    0.0000 C.3     1  UNL1       -0.0048
     12 C           6.6021    0.4454    0.0000 C.2     1  UNL1       -0.0627
     13 C           5.6146   -1.9482    0.0000 C.2     1  UNL1       -0.0580
     14 C           2.9749   -0.3825    0.0000 C.2     1  UNL1        0.3107
     15 C           2.8504    1.3895    0.0000 C.3     1  UNL1       -0.0518
     16 C           7.0647   -1.2498    0.0000 C.2     1  UNL1        0.1827
     17 C           6.5929   -2.1248    0.0000 C.2     1  UNL1       -0.0150
     18 C           7.5770    0.6679    0.0000 C.3     1  UNL1       -0.0430
     19 C           4.8930   -2.6405    0.0000 C.3     1  UNL1       -0.0427
     20 H           4.0200    1.2266    0.0000 H       1  UNL1        0.0370
     21 H           4.6147   -1.3787    0.0000 H       1  UNL1        0.0747
     22 H           4.7916   -1.4639    0.0000 H       1  UNL1        0.0431
     23 H           3.6936    1.0576    0.0000 H       1  UNL1        0.0415
     24 H           5.3085    1.7522    0.0000 H       1  UNL1        0.0600
     25 H           6.5372    1.4962    0.0000 H       1  UNL1        0.0335
     26 H           5.8407    1.8317    0.0000 H       1  UNL1        0.0335
     27 H           3.3821    1.7084    0.0000 H       1  UNL1        0.0238
     28 H           2.5315    1.9212    0.0000 H       1  UNL1        0.0238
     29 H           2.3188    1.0706    0.0000 H       1  UNL1        0.0238
     30 H           6.8619   -2.6834    0.0000 H       1  UNL1        0.0655
     31 H           4.8940    2.6405    0.0000 H       1  UNL1        0.2098
     32 H           7.7150    0.0635    0.0000 H       1  UNL1        0.0275
     33 H           8.1815    0.8059    0.0000 H       1  UNL1        0.0275
     34 H           7.4391    1.2724    0.0000 H       1  UNL1        0.0275
     35 H           4.4638   -2.1931    0.0000 H       1  UNL1        0.0275
     36 H           4.4456   -3.0697    0.0000 H       1  UNL1        0.0275
     37 H           5.3223   -3.0878    0.0000 H       1  UNL1        0.0275
@<TRIPOS>BOND
     1     1     6    1
     2     1    14    1
     3     9     2    1
     4     2    31    1
     5     3    14    2
     6     4    16    2
     7     5     6    1
     8     5     8    1
     9     5     9    1
    10     5    20    1
    11     6     7    1
    12     6    21    1
    13     7    10    1
    14     7    13    1
    15     7    22    1
    16     8    14    1
    17     8    15    1
    18     8    23    1
    19     9    11    1
    20     9    24    1
    21    10    12    2
    22    10    16    1
    23    11    12    1
    24    11    25    1
    25    11    26    1
    26    12    18    1
    27    13    17    2
    28    13    19    1
    29    15    27    1
    30    15    28    1
    31    15    29    1
    32    16    17    1
    33    17    30    1
    34    18    32    1
    35    18    33    1
    36    18    34    1
    37    19    35    1
    38    19    36    1
    39    19    37    1
