@<TRIPOS>MOLECULE
IMPHY008501
 53 54 0 0 0
SMALL
GASTEIGER

@<TRIPOS>ATOM
      1 O           3.7320   -1.7500    0.0000 O.3     1  UNL1       -0.4180
      2 O           3.7320    0.2500    0.0000 O.3     1  UNL1       -0.4905
      3 O           7.1962   -1.7500    0.0000 O.3     1  UNL1       -0.4884
      4 O           4.5981   -3.2500    0.0000 O.2     1  UNL1       -0.2501
      5 O           5.4641   -2.7500    0.0000 O.3     1  UNL1       -0.5007
      6 O           7.1962    0.2500    0.0000 O.3     1  UNL1       -0.5027
      7 O           4.5981    1.7500    0.0000 O.2     1  UNL1       -0.2870
      8 C           2.8660   -3.2500    0.0000 C.3     1  UNL1        0.0538
      9 C           2.8660   -4.2500    0.0000 C.3     1  UNL1       -0.0432
     10 C           2.0000   -2.7500    0.0000 C.3     1  UNL1       -0.0523
     11 C           3.7320   -2.7500    0.0000 C.2     1  UNL1        0.3154
     12 C           4.5981   -1.2500    0.0000 C.ar    1  UNL1        0.2187
     13 C           2.0000   -4.7500    0.0000 C.3     1  UNL1       -0.0645
     14 C           4.5981   -0.2500    0.0000 C.ar    1  UNL1        0.1805
     15 C           5.4641    0.2500    0.0000 C.ar    1  UNL1        0.1121
     16 C           5.4641   -1.7500    0.0000 C.ar    1  UNL1        0.2092
     17 C           6.3301   -0.2500    0.0000 C.ar    1  UNL1        0.1770
     18 C           6.3301   -1.2500    0.0000 C.ar    1  UNL1        0.2078
     19 C           5.4641    1.2500    0.0000 C.2     1  UNL1        0.1934
     20 C           6.3301    1.7500    0.0000 C.2     1  UNL1       -0.0135
     21 C           6.3301    2.7500    0.0000 C.2     1  UNL1       -0.0510
     22 C           2.8660   -0.2500    0.0000 C.3     1  UNL1        0.0790
     23 C           7.1962    3.2500    0.0000 C.ar    1  UNL1       -0.0249
     24 C           7.1962   -2.7500    0.0000 C.3     1  UNL1        0.0791
     25 C           8.0622    2.7500    0.0000 C.ar    1  UNL1       -0.0546
     26 C           7.1962    4.2500    0.0000 C.ar    1  UNL1       -0.0546
     27 C           8.9282    3.2500    0.0000 C.ar    1  UNL1       -0.0612
     28 C           8.0622    4.7500    0.0000 C.ar    1  UNL1       -0.0612
     29 C           8.9282    4.2500    0.0000 C.ar    1  UNL1       -0.0617
     30 H           2.8660   -2.4000    0.0000 H       1  UNL1        0.0411
     31 H           3.0781   -4.8326    0.0000 H       1  UNL1        0.0270
     32 H           3.4766   -4.1423    0.0000 H       1  UNL1        0.0270
     33 H           2.3100   -2.2131    0.0000 H       1  UNL1        0.0238
     34 H           1.4631   -2.4400    0.0000 H       1  UNL1        0.0238
     35 H           1.6900   -3.2869    0.0000 H       1  UNL1        0.0238
     36 H           1.6900   -4.2131    0.0000 H       1  UNL1        0.0230
     37 H           1.4631   -5.0600    0.0000 H       1  UNL1        0.0230
     38 H           2.3100   -5.2869    0.0000 H       1  UNL1        0.0230
     39 H           6.8671    1.4400    0.0000 H       1  UNL1        0.0656
     40 H           6.0010   -3.0600    0.0000 H       1  UNL1        0.2924
     41 H           7.7331   -0.0600    0.0000 H       1  UNL1        0.2923
     42 H           5.7932    3.0600    0.0000 H       1  UNL1        0.0625
     43 H           2.5560    0.2869    0.0000 H       1  UNL1        0.0660
     44 H           2.3291   -0.5600    0.0000 H       1  UNL1        0.0660
     45 H           3.1760   -0.7869    0.0000 H       1  UNL1        0.0660
     46 H           6.5762   -2.7500    0.0000 H       1  UNL1        0.0660
     47 H           7.1962   -3.3700    0.0000 H       1  UNL1        0.0660
     48 H           7.8162   -2.7500    0.0000 H       1  UNL1        0.0660
     49 H           8.0622    2.1300    0.0000 H       1  UNL1        0.0623
     50 H           6.6592    4.5600    0.0000 H       1  UNL1        0.0623
     51 H           9.4651    2.9400    0.0000 H       1  UNL1        0.0618
     52 H           8.0622    5.3700    0.0000 H       1  UNL1        0.0618
     53 H           9.4651    4.5600    0.0000 H       1  UNL1        0.0618
@<TRIPOS>BOND
     1     1    11    1
     2     1    12    1
     3     2    14    1
     4     2    22    1
     5     3    18    1
     6     3    24    1
     7     4    11    2
     8     5    16    1
     9     5    40    1
    10     6    17    1
    11     6    41    1
    12     7    19    2
    13     8     9    1
    14     8    10    1
    15     8    11    1
    16     8    30    1
    17     9    13    1
    18     9    31    1
    19     9    32    1
    20    10    33    1
    21    10    34    1
    22    10    35    1
    23    12    14   ar
    24    12    16   ar
    25    13    36    1
    26    13    37    1
    27    13    38    1
    28    14    15   ar
    29    15    17   ar
    30    15    19    1
    31    16    18   ar
    32    17    18   ar
    33    19    20    1
    34    20    21    2
    35    20    39    1
    36    21    23    1
    37    21    42    1
    38    22    43    1
    39    22    44    1
    40    22    45    1
    41    23    25   ar
    42    23    26   ar
    43    24    46    1
    44    24    47    1
    45    24    48    1
    46    25    27   ar
    47    25    49    1
    48    26    28   ar
    49    26    50    1
    50    27    29   ar
    51    27    51    1
    52    28    29   ar
    53    28    52    1
    54    29    53    1
