@<TRIPOS>MOLECULE
IMPHY014781
 31 32 0 0 0
SMALL
GASTEIGER

@<TRIPOS>ATOM
      1 O           5.9399    1.5707    0.0000 O.3     1  UNL1       -0.3882
      2 C           4.1881    0.6708    0.0000 C.3     1  UNL1        0.0122
      3 C           4.1931   -0.3291    0.0000 C.3     1  UNL1       -0.0112
      4 C           5.1328    0.9803    0.0000 C.3     1  UNL1        0.0701
      5 C           5.1408   -0.6292    0.0000 C.3     1  UNL1       -0.0433
      6 C           5.7204    0.1785    0.0000 C.3     1  UNL1       -0.0231
      7 C           3.4144   -0.9565    0.0000 C.2     1  UNL1       -0.0726
      8 C           3.4032    1.2904    0.0000 C.2     1  UNL1       -0.0816
      9 C           4.8207    1.9303    0.0000 C.3     1  UNL1       -0.0355
     10 C           2.4384   -0.7389    0.0000 C.3     1  UNL1       -0.0283
     11 C           2.0000    0.1599    0.0000 C.3     1  UNL1       -0.0311
     12 C           2.4294    1.0630    0.0000 C.2     1  UNL1       -0.0873
     13 C           3.6418   -1.9303    0.0000 C.2     1  UNL1       -0.0992
     14 H           4.2966    1.2813    0.0000 H       1  UNL1        0.0376
     15 H           4.3076   -0.9385    0.0000 H       1  UNL1        0.0352
     16 H           4.8926   -1.1973    0.0000 H       1  UNL1        0.0272
     17 H           5.6798   -0.9357    0.0000 H       1  UNL1        0.0272
     18 H           6.1834   -0.2339    0.0000 H       1  UNL1        0.0293
     19 H           6.1792    0.5955    0.0000 H       1  UNL1        0.0293
     20 H           3.5381    1.8956    0.0000 H       1  UNL1        0.0573
     21 H           5.4097    2.1238    0.0000 H       1  UNL1        0.0257
     22 H           4.6272    2.5194    0.0000 H       1  UNL1        0.0257
     23 H           4.2317    1.7368    0.0000 H       1  UNL1        0.0257
     24 H           1.8346   -0.8798    0.0000 H       1  UNL1        0.0313
     25 H           2.4415   -1.3589    0.0000 H       1  UNL1        0.0313
     26 H           1.5133    0.5441    0.0000 H       1  UNL1        0.0310
     27 H           1.5172   -0.2291    0.0000 H       1  UNL1        0.0310
     28 H           6.5071    1.3204    0.0000 H       1  UNL1        0.2102
     29 H           2.0404    1.5458    0.0000 H       1  UNL1        0.0569
     30 H           3.1894   -2.3543    0.0000 H       1  UNL1        0.0534
     31 H           4.2351   -2.1101    0.0000 H       1  UNL1        0.0534
@<TRIPOS>BOND
     1     4     1    1
     2     1    28    1
     3     2     3    1
     4     2     4    1
     5     2     8    1
     6     2    14    1
     7     3     5    1
     8     3     7    1
     9     3    15    1
    10     4     6    1
    11     4     9    1
    12     5     6    1
    13     5    16    1
    14     5    17    1
    15     6    18    1
    16     6    19    1
    17     7    10    1
    18     7    13    2
    19     8    12    2
    20     8    20    1
    21     9    21    1
    22     9    22    1
    23     9    23    1
    24    10    11    1
    25    10    24    1
    26    10    25    1
    27    11    12    1
    28    11    26    1
    29    11    27    1
    30    12    29    1
    31    13    30    1
    32    13    31    1
