@<TRIPOS>MOLECULE
IMPHY017319
 31 31 0 0 0
SMALL
GASTEIGER

@<TRIPOS>ATOM
      1 N           5.4641    0.5000    0.0000 N.ar    1  UNL1       -0.2535
      2 N           5.4641    2.5000    0.0000 N.ar    1  UNL1       -0.2566
      3 C           3.7320   -0.5000    0.0000 C.3     1  UNL1       -0.0476
      4 C           2.8660   -1.0000    0.0000 C.3     1  UNL1       -0.0530
      5 C           3.7320    0.5000    0.0000 C.3     1  UNL1       -0.0087
      6 C           2.8660   -2.0000    0.0000 C.3     1  UNL1       -0.0559
      7 C           4.5981    1.0000    0.0000 C.ar    1  UNL1        0.0625
      8 C           4.5981    2.0000    0.0000 C.ar    1  UNL1        0.0594
      9 C           2.0000   -2.5000    0.0000 C.3     1  UNL1       -0.0653
     10 C           6.3301    1.0000    0.0000 C.ar    1  UNL1        0.0566
     11 C           3.7320    2.5000    0.0000 C.3     1  UNL1       -0.0206
     12 C           6.3301    2.0000    0.0000 C.ar    1  UNL1        0.0489
     13 C           7.1962    0.5000    0.0000 C.3     1  UNL1       -0.0209
     14 H           3.9441   -1.0826    0.0000 H       1  UNL1        0.0269
     15 H           4.3426   -0.3923    0.0000 H       1  UNL1        0.0269
     16 H           2.6540   -0.4174    0.0000 H       1  UNL1        0.0265
     17 H           2.2554   -1.1077    0.0000 H       1  UNL1        0.0265
     18 H           3.5200    1.0826    0.0000 H       1  UNL1        0.0329
     19 H           3.1215    0.3923    0.0000 H       1  UNL1        0.0329
     20 H           3.0781   -2.5826    0.0000 H       1  UNL1        0.0263
     21 H           3.4766   -1.8923    0.0000 H       1  UNL1        0.0263
     22 H           1.6900   -1.9631    0.0000 H       1  UNL1        0.0230
     23 H           1.4631   -2.8100    0.0000 H       1  UNL1        0.0230
     24 H           2.3100   -3.0369    0.0000 H       1  UNL1        0.0230
     25 H           4.0420    3.0369    0.0000 H       1  UNL1        0.0293
     26 H           3.1951    2.8100    0.0000 H       1  UNL1        0.0293
     27 H           3.4220    1.9631    0.0000 H       1  UNL1        0.0293
     28 H           6.8671    2.3100    0.0000 H       1  UNL1        0.0848
     29 H           6.8862   -0.0369    0.0000 H       1  UNL1        0.0293
     30 H           7.7331    0.1900    0.0000 H       1  UNL1        0.0293
     31 H           7.5062    1.0369    0.0000 H       1  UNL1        0.0293
@<TRIPOS>BOND
     1     1     7   ar
     2     1    10   ar
     3     2     8   ar
     4     2    12   ar
     5     3     4    1
     6     3     5    1
     7     3    14    1
     8     3    15    1
     9     4     6    1
    10     4    16    1
    11     4    17    1
    12     5     7    1
    13     5    18    1
    14     5    19    1
    15     6     9    1
    16     6    20    1
    17     6    21    1
    18     7     8   ar
    19     8    11    1
    20     9    22    1
    21     9    23    1
    22     9    24    1
    23    10    12   ar
    24    10    13    1
    25    11    25    1
    26    11    26    1
    27    11    27    1
    28    12    28    1
    29    13    29    1
    30    13    30    1
    31    13    31    1
