@<TRIPOS>MOLECULE
IMPHY009080
 53 56 0 0 0
SMALL
GASTEIGER

@<TRIPOS>ATOM
      1 O           2.9848    1.0855    0.0000 O.3     1  UNL1       -0.4675
      2 O           3.2856   -0.6203    0.0000 O.2     1  UNL1       -0.2501
      3 N           7.3181    1.4779    0.0000 N.3     1  UNL1       -0.3015
      4 N           4.5024   -1.1579    0.0000 N.ar    1  UNL1       -0.3570
      5 C           5.5521    2.1207    0.0000 C.3     1  UNL1       -0.0156
      6 C           6.5521    2.1207    0.0000 C.3     1  UNL1        0.0046
      7 C           5.9465    3.0600    0.0000 C.3     1  UNL1       -0.0450
      8 C           4.7860    1.4779    0.0000 C.3     1  UNL1       -0.0278
      9 C           4.7471    2.7139    0.0000 C.3     1  UNL1       -0.0490
     10 C           6.9525    3.2206    0.0000 C.3     1  UNL1       -0.0397
     11 C           7.6198    2.4509    0.0000 C.3     1  UNL1       -0.0011
     12 C           4.6124    0.4931    0.0000 C.3     1  UNL1        0.0971
     13 C           7.4918    0.4931    0.0000 C.3     1  UNL1        0.0030
     14 C           5.1124   -0.3730    0.0000 C.ar    1  UNL1        0.0341
     15 C           6.9918   -0.3730    0.0000 C.3     1  UNL1       -0.0126
     16 C           6.0521   -0.7150    0.0000 C.ar    1  UNL1       -0.0171
     17 C           4.8583    3.7077    0.0000 C.3     1  UNL1       -0.0647
     18 C           3.6276    0.3194    0.0000 C.2     1  UNL1        0.3158
     19 C           6.0148   -1.7084    0.0000 C.ar    1  UNL1        0.0032
     20 C           5.0590   -1.9815    0.0000 C.ar    1  UNL1        0.0469
     21 C           6.7701   -2.4167    0.0000 C.ar    1  UNL1       -0.0523
     22 C           4.7922   -2.9820    0.0000 C.ar    1  UNL1       -0.0378
     23 C           6.5264   -3.4231    0.0000 C.ar    1  UNL1       -0.0611
     24 C           5.5308   -3.7077    0.0000 C.ar    1  UNL1       -0.0598
     25 C           2.0000    0.9118    0.0000 C.3     1  UNL1        0.0817
     26 H           7.0701    2.4614    0.0000 H       1  UNL1        0.0432
     27 H           6.3743    2.7146    0.0000 H       1  UNL1        0.0432
     28 H           5.9632    3.6797    0.0000 H       1  UNL1        0.0271
     29 H           5.3404    3.1906    0.0000 H       1  UNL1        0.0271
     30 H           4.5405    2.0472    0.0000 H       1  UNL1        0.0282
     31 H           4.1702    1.4059    0.0000 H       1  UNL1        0.0282
     32 H           4.1523    2.8888    0.0000 H       1  UNL1        0.0268
     33 H           4.4715    2.1585    0.0000 H       1  UNL1        0.0268
     34 H           7.4877    3.5335    0.0000 H       1  UNL1        0.0278
     35 H           6.7436    3.8044    0.0000 H       1  UNL1        0.0278
     36 H           8.1680    2.1614    0.0000 H       1  UNL1        0.0426
     37 H           8.0054    2.9364    0.0000 H       1  UNL1        0.0426
     38 H           4.1740    0.9315    0.0000 H       1  UNL1        0.0477
     39 H           7.9173    0.0421    0.0000 H       1  UNL1        0.0430
     40 H           8.0458    0.7713    0.0000 H       1  UNL1        0.0430
     41 H           7.0278   -0.9919    0.0000 H       1  UNL1        0.0326
     42 H           7.5951   -0.5159    0.0000 H       1  UNL1        0.0326
     43 H           5.4745    3.6387    0.0000 H       1  UNL1        0.0230
     44 H           4.9273    4.3238    0.0000 H       1  UNL1        0.0230
     45 H           4.2422    3.7767    0.0000 H       1  UNL1        0.0230
     46 H           3.8828   -1.1373    0.0000 H       1  UNL1        0.1656
     47 H           7.3642   -2.2395    0.0000 H       1  UNL1        0.0624
     48 H           4.1941   -3.1455    0.0000 H       1  UNL1        0.0638
     49 H           6.9737   -3.8525    0.0000 H       1  UNL1        0.0618
     50 H           5.3780   -4.3086    0.0000 H       1  UNL1        0.0618
     51 H           1.8923    1.5224    0.0000 H       1  UNL1        0.0661
     52 H           1.3894    0.8041    0.0000 H       1  UNL1        0.0661
     53 H           2.1077    0.3012    0.0000 H       1  UNL1        0.0661
@<TRIPOS>BOND
     1     1    18    1
     2     1    25    1
     3     2    18    2
     4     3     6    1
     5     3    11    1
     6     3    13    1
     7     4    14   ar
     8     4    20   ar
     9     4    46    1
    10     5     6    1
    11     5     7    1
    12     5     8    1
    13     5     9    1
    14     6    26    1
    15     6    27    1
    16     7    10    1
    17     7    28    1
    18     7    29    1
    19     8    12    1
    20     8    30    1
    21     8    31    1
    22     9    17    1
    23     9    32    1
    24     9    33    1
    25    10    11    1
    26    10    34    1
    27    10    35    1
    28    11    36    1
    29    11    37    1
    30    12    14    1
    31    12    18    1
    32    12    38    1
    33    13    15    1
    34    13    39    1
    35    13    40    1
    36    14    16   ar
    37    15    16    1
    38    15    41    1
    39    15    42    1
    40    16    19   ar
    41    17    43    1
    42    17    44    1
    43    17    45    1
    44    19    20   ar
    45    19    21   ar
    46    20    22   ar
    47    21    23   ar
    48    21    47    1
    49    22    24   ar
    50    22    48    1
    51    23    24   ar
    52    23    49    1
    53    24    50    1
    54    25    51    1
    55    25    52    1
    56    25    53    1
