@<TRIPOS>MOLECULE
IMPHY003402
 30 31 0 0 0
SMALL
GASTEIGER

@<TRIPOS>ATOM
      1 S           9.0506   -0.4979    0.0000 S.2     1  UNL1       -0.0794
      2 S          11.1197   -1.1702    0.0000 S.2     1  UNL1       -0.0961
      3 O           3.6942   -0.4771    0.0000 O.3     1  UNL1       -0.4639
      4 O           3.1590    1.1702    0.0000 O.2     1  UNL1       -0.2512
      5 C           9.8596    0.0899    0.0000 C.ar    1  UNL1        0.0271
      6 C          10.8107   -0.2192    0.0000 C.ar    1  UNL1        0.0259
      7 C           9.5506    1.0409    0.0000 C.ar    1  UNL1       -0.0452
      8 C           8.2416    0.0899    0.0000 C.ar    1  UNL1        0.0625
      9 C           8.5506    1.0409    0.0000 C.ar    1  UNL1       -0.0386
     10 C           5.3884   -0.8372    0.0000 C.3     1  UNL1        0.0438
     11 C          11.6197    0.3686    0.0000 C.ar    1  UNL1       -0.0464
     12 C           4.6453   -0.1681    0.0000 C.3     1  UNL1        0.1032
     13 C          12.4287   -0.2192    0.0000 C.ar    1  UNL1       -0.0541
     14 C          12.1197   -1.1702    0.0000 C.ar    1  UNL1       -0.0237
     15 C           7.2905   -0.2192    0.0000 C.1     1  UNL1       -0.0590
     16 C           6.3395   -0.5282    0.0000 C.1     1  UNL1       -0.0931
     17 C           2.9511    0.1921    0.0000 C.2     1  UNL1        0.3040
     18 C           2.0000   -0.1170    0.0000 C.3     1  UNL1        0.0332
     19 H           9.9150    1.5425    0.0000 H       1  UNL1        0.0629
     20 H           8.1862    1.5425    0.0000 H       1  UNL1        0.0635
     21 H           4.8998   -1.2189    0.0000 H       1  UNL1        0.0431
     22 H           5.6795   -1.3846    0.0000 H       1  UNL1        0.0431
     23 H          11.6197    0.9886    0.0000 H       1  UNL1        0.0629
     24 H           5.1338    0.2137    0.0000 H       1  UNL1        0.0707
     25 H           4.3542    0.3794    0.0000 H       1  UNL1        0.0707
     26 H          13.0184   -0.0276    0.0000 H       1  UNL1        0.0623
     27 H          12.4841   -1.6718    0.0000 H       1  UNL1        0.0693
     28 H           1.8084    0.4727    0.0000 H       1  UNL1        0.0342
     29 H           1.4103   -0.3085    0.0000 H       1  UNL1        0.0342
     30 H           2.1916   -0.7066    0.0000 H       1  UNL1        0.0342
@<TRIPOS>BOND
     1     1     5   ar
     2     1     8   ar
     3     2     6   ar
     4     2    14   ar
     5     3    12    1
     6     3    17    1
     7     4    17    2
     8     5     6    1
     9     5     7   ar
    10     6    11   ar
    11     7     9   ar
    12     7    19    1
    13     8     9   ar
    14     8    15    1
    15     9    20    1
    16    10    12    1
    17    10    16    1
    18    10    21    1
    19    10    22    1
    20    11    13   ar
    21    11    23    1
    22    12    24    1
    23    12    25    1
    24    13    14   ar
    25    13    26    1
    26    14    27    1
    27    15    16    3
    28    17    18    1
    29    18    28    1
    30    18    29    1
    31    18    30    1
