@<TRIPOS>MOLECULE
IMPHY002019
 36 36 0 0 0
SMALL
GASTEIGER

@<TRIPOS>ATOM
      1 O           3.7320    1.5000    0.0000 O.3     1  UNL1       -0.4939
      2 O           5.4641   -1.5000    0.0000 O.3     1  UNL1       -0.5062
      3 O           7.1962    1.5000    0.0000 O.3     1  UNL1       -0.5058
      4 O           4.5981    3.0000    0.0000 O.2     1  UNL1       -0.2921
      5 C           4.5981    0.0000    0.0000 C.ar    1  UNL1        0.0402
      6 C           3.7320   -0.5000    0.0000 C.3     1  UNL1       -0.0023
      7 C           4.5981    1.0000    0.0000 C.ar    1  UNL1        0.1410
      8 C           5.4641    1.5000    0.0000 C.ar    1  UNL1        0.1005
      9 C           5.4641   -0.5000    0.0000 C.ar    1  UNL1        0.1273
     10 C           6.3301    1.0000    0.0000 C.ar    1  UNL1        0.1343
     11 C           3.7320   -1.5000    0.0000 C.2     1  UNL1       -0.0807
     12 C           6.3301    0.0000    0.0000 C.ar    1  UNL1        0.0225
     13 C           2.8660   -2.0000    0.0000 C.2     1  UNL1       -0.0793
     14 C           5.4641    2.5000    0.0000 C.2     1  UNL1        0.1671
     15 C           2.8660   -3.0000    0.0000 C.3     1  UNL1       -0.0440
     16 C           2.0000   -1.5000    0.0000 C.3     1  UNL1       -0.0440
     17 C           6.3301    3.0000    0.0000 C.3     1  UNL1       -0.0012
     18 C           2.8660    1.0000    0.0000 C.3     1  UNL1        0.0788
     19 H           3.5200    0.0826    0.0000 H       1  UNL1        0.0358
     20 H           3.1215   -0.6077    0.0000 H       1  UNL1        0.0358
     21 H           4.2690   -1.8100    0.0000 H       1  UNL1        0.0575
     22 H           6.8671   -0.3100    0.0000 H       1  UNL1        0.0691
     23 H           2.2460   -3.0000    0.0000 H       1  UNL1        0.0274
     24 H           2.3100   -0.9631    0.0000 H       1  UNL1        0.0274
     25 H           1.4631   -1.1900    0.0000 H       1  UNL1        0.0274
     26 H           1.6900   -2.0369    0.0000 H       1  UNL1        0.0274
     27 H           2.8660   -3.6200    0.0000 H       1  UNL1        0.0274
     28 H           3.4860   -3.0000    0.0000 H       1  UNL1        0.0274
     29 H           6.6401    2.4631    0.0000 H       1  UNL1        0.0309
     30 H           6.8671    3.3100    0.0000 H       1  UNL1        0.0309
     31 H           6.0201    3.5369    0.0000 H       1  UNL1        0.0309
     32 H           6.0010   -1.8100    0.0000 H       1  UNL1        0.2921
     33 H           2.5560    1.5369    0.0000 H       1  UNL1        0.0660
     34 H           2.3291    0.6900    0.0000 H       1  UNL1        0.0660
     35 H           3.1760    0.4631    0.0000 H       1  UNL1        0.0660
     36 H           7.7331    1.1900    0.0000 H       1  UNL1        0.2922
@<TRIPOS>BOND
     1     1     7    1
     2     1    18    1
     3     2     9    1
     4     2    32    1
     5     3    10    1
     6     3    36    1
     7     4    14    2
     8     5     6    1
     9     5     7   ar
    10     5     9   ar
    11     6    11    1
    12     6    19    1
    13     6    20    1
    14     7     8   ar
    15     8    10   ar
    16     8    14    1
    17     9    12   ar
    18    10    12   ar
    19    11    13    2
    20    11    21    1
    21    12    22    1
    22    13    15    1
    23    13    16    1
    24    14    17    1
    25    15    23    1
    26    15    27    1
    27    15    28    1
    28    16    24    1
    29    16    25    1
    30    16    26    1
    31    17    29    1
    32    17    30    1
    33    17    31    1
    34    18    33    1
    35    18    34    1
    36    18    35    1
