@<TRIPOS>MOLECULE
IMPHY001800
 32 34 0 0 0
SMALL
GASTEIGER

@<TRIPOS>ATOM
      1 O           2.7493    0.9693    0.0000 O.2     1  UNL1       -0.2871
      2 O           5.7378    1.8703    0.0000 O.3     1  UNL1       -0.4761
      3 O           4.0057    1.8703    0.0000 O.2     1  UNL1       -0.2434
      4 N           5.3717   -1.1686    0.0000 N.ar    1  UNL1       -0.2829
      5 N           5.6808   -0.2175    0.0000 N.ar    1  UNL1       -0.2766
      6 C           6.0567   -1.9533    0.0000 C.3     1  UNL1        0.0404
      7 C           6.6962    0.0148    0.0000 C.3     1  UNL1        0.0407
      8 C           7.0772   -1.7446    0.0000 C.3     1  UNL1       -0.0317
      9 C           7.3991   -0.7539    0.0000 C.3     1  UNL1       -0.0317
     10 C           4.3717   -1.1686    0.0000 C.ar    1  UNL1        0.0717
     11 C           4.8717    0.3703    0.0000 C.ar    1  UNL1        0.1552
     12 C           4.0627   -0.2175    0.0000 C.ar    1  UNL1        0.0784
     13 C           3.6868   -1.9533    0.0000 C.ar    1  UNL1       -0.0329
     14 C           3.0473    0.0148    0.0000 C.ar    1  UNL1        0.1906
     15 C           2.6663   -1.7446    0.0000 C.ar    1  UNL1       -0.0448
     16 C           4.8717    1.3703    0.0000 C.2     1  UNL1        0.3557
     17 C           2.3444   -0.7539    0.0000 C.ar    1  UNL1       -0.0112
     18 C           2.0000   -2.4903    0.0000 C.3     1  UNL1       -0.0395
     19 H           5.5267   -2.2750    0.0000 H       1  UNL1        0.0508
     20 H           6.2830   -2.5305    0.0000 H       1  UNL1        0.0508
     21 H           7.2186    0.3487    0.0000 H       1  UNL1        0.0508
     22 H           6.4565    0.5866    0.0000 H       1  UNL1        0.0508
     23 H           7.0957   -2.3643    0.0000 H       1  UNL1        0.0283
     24 H           7.6910   -1.8324    0.0000 H       1  UNL1        0.0283
     25 H           7.9473   -1.0436    0.0000 H       1  UNL1        0.0283
     26 H           7.7783   -0.2634    0.0000 H       1  UNL1        0.0283
     27 H           3.8852   -2.5407    0.0000 H       1  UNL1        0.0641
     28 H           1.7384   -0.6227    0.0000 H       1  UNL1        0.0659
     29 H           1.5376   -2.0772    0.0000 H       1  UNL1        0.0278
     30 H           1.5869   -2.9526    0.0000 H       1  UNL1        0.0278
     31 H           2.4623   -2.9034    0.0000 H       1  UNL1        0.0278
     32 H           5.7378    2.4903    0.0000 H       1  UNL1        0.2955
@<TRIPOS>BOND
     1     1    14    2
     2     2    16    1
     3     2    32    1
     4     3    16    2
     5     4     5   ar
     6     4     6    1
     7     4    10   ar
     8     5     7    1
     9     5    11   ar
    10     6     8    1
    11     6    19    1
    12     6    20    1
    13     7     9    1
    14     7    21    1
    15     7    22    1
    16     8     9    1
    17     8    23    1
    18     8    24    1
    19     9    25    1
    20     9    26    1
    21    10    12    1
    22    10    13   ar
    23    11    12   ar
    24    11    16    1
    25    12    14   ar
    26    13    15   ar
    27    13    27    1
    28    14    17   ar
    29    15    17   ar
    30    15    18    1
    31    17    28    1
    32    18    29    1
    33    18    30    1
    34    18    31    1
