@<TRIPOS>MOLECULE
IMPHY000029
 43 46 0 0 0
SMALL
GASTEIGER

@<TRIPOS>ATOM
      1 O           5.4189   -0.8852    0.0000 O.3     1  UNL1       -0.3655
      2 O           6.2011   -0.7349    0.0000 O.3     1  UNL1       -0.4559
      3 O           2.8660    0.4322    0.0000 O.3     1  UNL1       -0.3869
      4 O           4.6011   -2.5181    0.0000 O.3     1  UNL1       -0.3749
      5 O           6.2960   -2.5087    0.0000 O.2     1  UNL1       -0.2474
      6 O           2.8660    2.4322    0.0000 O.3     1  UNL1       -0.4677
      7 O           2.0000    0.9322    0.0000 O.2     1  UNL1       -0.2504
      8 C           4.5981   -0.5678    0.0000 C.3     1  UNL1        0.0785
      9 C           3.7320   -0.0678    0.0000 C.3     1  UNL1        0.0941
     10 C           4.8073   -1.5396    0.0000 C.3     1  UNL1        0.1999
     11 C           5.4641   -0.0678    0.0000 C.3     1  UNL1        0.1409
     12 C           3.8224   -1.7548    0.0000 C.3     1  UNL1        0.1017
     13 C           5.4641    0.9322    0.0000 C.3     1  UNL1        0.1040
     14 C           3.2276   -0.9407    0.0000 C.3     1  UNL1        0.0072
     15 C           3.7320    0.9322    0.0000 C.3     1  UNL1        0.0948
     16 C           4.5981    1.4322    0.0000 C.3     1  UNL1        0.0250
     17 C           5.3373   -1.4488    0.0000 C.3     1  UNL1       -0.0501
     18 C           5.7960   -1.6427    0.0000 C.2     1  UNL1        0.3429
     19 C           4.5981    2.4322    0.0000 C.2     1  UNL1       -0.0732
     20 C           2.8660    1.4322    0.0000 C.2     1  UNL1        0.3134
     21 C           5.4641    2.9322    0.0000 C.3     1  UNL1       -0.0437
     22 C           3.7320    2.9322    0.0000 C.2     1  UNL1       -0.0993
     23 C           2.0000    2.9322    0.0000 C.3     1  UNL1        0.0817
     24 H           6.2002    0.3572    0.0000 H       1  UNL1        0.0768
     25 H           3.1640   -2.2924    0.0000 H       1  UNL1        0.0632
     26 H           6.2054    1.3480    0.0000 H       1  UNL1        0.0639
     27 H           2.7388   -0.5593    0.0000 H       1  UNL1        0.0319
     28 H           2.7824   -1.3721    0.0000 H       1  UNL1        0.0319
     29 H           3.7320    1.5522    0.0000 H       1  UNL1        0.0449
     30 H           5.1350    1.7422    0.0000 H       1  UNL1        0.0381
     31 H           4.8623   -1.8473    0.0000 H       1  UNL1        0.0238
     32 H           5.7358   -1.9237    0.0000 H       1  UNL1        0.0238
     33 H           5.8122   -1.0502    0.0000 H       1  UNL1        0.0238
     34 H           2.3291    0.1222    0.0000 H       1  UNL1        0.2102
     35 H           5.0626   -2.9322    0.0000 H       1  UNL1        0.2110
     36 H           5.7741    2.3952    0.0000 H       1  UNL1        0.0274
     37 H           6.0010    3.2422    0.0000 H       1  UNL1        0.0274
     38 H           5.1541    3.4691    0.0000 H       1  UNL1        0.0274
     39 H           3.7320    3.5522    0.0000 H       1  UNL1        0.0534
     40 H           3.1951    2.6222    0.0000 H       1  UNL1        0.0534
     41 H           2.3100    3.4691    0.0000 H       1  UNL1        0.0661
     42 H           1.4631    3.2422    0.0000 H       1  UNL1        0.0661
     43 H           1.6900    2.3952    0.0000 H       1  UNL1        0.0661
@<TRIPOS>BOND
     1     1    12    1
     2     1    13    1
     3     2    11    1
     4     2    18    1
     5     9     3    1
     6     3    34    1
     7    10     4    1
     8     4    35    1
     9     5    18    2
    10     6    20    1
    11     6    23    1
    12     7    20    2
    13     8     9    1
    14     8    10    1
    15     8    11    1
    16     8    17    1
    17     9    14    1
    18     9    15    1
    19    10    12    1
    20    10    18    1
    21    11    13    1
    22    11    24    1
    23    12    14    1
    24    12    25    1
    25    13    16    1
    26    13    26    1
    27    14    27    1
    28    14    28    1
    29    15    16    1
    30    15    20    1
    31    15    29    1
    32    16    19    1
    33    16    30    1
    34    17    31    1
    35    17    32    1
    36    17    33    1
    37    19    21    1
    38    19    22    2
    39    21    36    1
    40    21    37    1
    41    21    38    1
    42    22    39    1
    43    22    40    1
    44    23    41    1
    45    23    42    1
    46    23    43    1
