@<TRIPOS>MOLECULE
IMPHY001545
 25 25 0 0 0
SMALL
GASTEIGER

@<TRIPOS>ATOM
      1 O           2.8660   -2.1550    0.0000 O.3     1  UNL1       -0.4914
      2 O           4.5981   -3.1550    0.0000 O.3     1  UNL1       -0.5033
      3 O           6.3301    2.8450    0.0000 O.3     1  UNL1       -0.3910
      4 C           4.5981   -0.1550    0.0000 C.ar    1  UNL1       -0.0216
      5 C           3.7320   -0.6550    0.0000 C.ar    1  UNL1       -0.0092
      6 C           3.7320   -1.6550    0.0000 C.ar    1  UNL1        0.1618
      7 C           5.4641   -0.6550    0.0000 C.ar    1  UNL1       -0.0509
      8 C           4.5981   -2.1550    0.0000 C.ar    1  UNL1        0.1585
      9 C           5.4641   -1.6550    0.0000 C.ar    1  UNL1       -0.0160
     10 C           4.5981    0.8450    0.0000 C.2     1  UNL1       -0.0563
     11 C           5.4641    1.3450    0.0000 C.2     1  UNL1       -0.0584
     12 C           5.4641    2.3450    0.0000 C.3     1  UNL1        0.0627
     13 C           2.0000   -1.6550    0.0000 C.3     1  UNL1        0.0790
     14 H           3.1951   -0.3450    0.0000 H       1  UNL1        0.0661
     15 H           6.0010   -0.3450    0.0000 H       1  UNL1        0.0625
     16 H           6.0010   -1.9650    0.0000 H       1  UNL1        0.0655
     17 H           4.0611    1.1550    0.0000 H       1  UNL1        0.0621
     18 H           6.0010    1.0350    0.0000 H       1  UNL1        0.0595
     19 H           5.2520    2.9276    0.0000 H       1  UNL1        0.0601
     20 H           4.8535    2.2373    0.0000 H       1  UNL1        0.0601
     21 H           2.3100   -1.1181    0.0000 H       1  UNL1        0.0660
     22 H           1.4631   -1.3450    0.0000 H       1  UNL1        0.0660
     23 H           1.6900   -2.1919    0.0000 H       1  UNL1        0.0660
     24 H           5.1350   -3.4650    0.0000 H       1  UNL1        0.2923
     25 H           6.3301    3.4650    0.0000 H       1  UNL1        0.2098
@<TRIPOS>BOND
     1     1     6    1
     2     1    13    1
     3     2     8    1
     4     2    24    1
     5     3    12    1
     6     3    25    1
     7     4     5   ar
     8     4     7   ar
     9     4    10    1
    10     5     6   ar
    11     5    14    1
    12     6     8   ar
    13     7     9   ar
    14     7    15    1
    15     8     9   ar
    16     9    16    1
    17    10    11    2
    18    10    17    1
    19    11    12    1
    20    11    18    1
    21    12    19    1
    22    12    20    1
    23    13    21    1
    24    13    22    1
    25    13    23    1
