@<TRIPOS>MOLECULE
IMPHY015635
 27 26 0 0 0
SMALL
GASTEIGER

@<TRIPOS>ATOM
      1 O           3.7320    0.4400    0.0000 O.3     1  UNL1       -0.4645
      2 O           2.8660   -1.0600    0.0000 O.2     1  UNL1       -0.2512
      3 C           8.0622   -0.0600    0.0000 C.3     1  UNL1       -0.0350
      4 C           8.9282    0.4400    0.0000 C.3     1  UNL1       -0.0525
      5 C           5.4641    0.4400    0.0000 C.3     1  UNL1       -0.0003
      6 C           7.1962    0.4400    0.0000 C.2     1  UNL1       -0.0878
      7 C           6.3301   -0.0600    0.0000 C.2     1  UNL1       -0.0847
      8 C           4.5981   -0.0600    0.0000 C.3     1  UNL1        0.0958
      9 C           9.7942   -0.0600    0.0000 C.3     1  UNL1       -0.0650
     10 C           2.8660   -0.0600    0.0000 C.2     1  UNL1        0.3040
     11 C           2.0000    0.4400    0.0000 C.3     1  UNL1        0.0332
     12 H           7.6636   -0.5349    0.0000 H       1  UNL1        0.0307
     13 H           8.4607   -0.5349    0.0000 H       1  UNL1        0.0307
     14 H           9.3267    0.9149    0.0000 H       1  UNL1        0.0266
     15 H           8.5297    0.9149    0.0000 H       1  UNL1        0.0266
     16 H           5.8626    0.9149    0.0000 H       1  UNL1        0.0340
     17 H           5.0656    0.9149    0.0000 H       1  UNL1        0.0340
     18 H           7.1962    1.0600    0.0000 H       1  UNL1        0.0569
     19 H           6.3301   -0.6800    0.0000 H       1  UNL1        0.0570
     20 H           4.1996   -0.5349    0.0000 H       1  UNL1        0.0700
     21 H           4.9966   -0.5349    0.0000 H       1  UNL1        0.0700
     22 H           9.4842   -0.5969    0.0000 H       1  UNL1        0.0230
     23 H          10.3312   -0.3700    0.0000 H       1  UNL1        0.0230
     24 H          10.1042    0.4769    0.0000 H       1  UNL1        0.0230
     25 H           2.3100    0.9769    0.0000 H       1  UNL1        0.0342
     26 H           1.4631    0.7500    0.0000 H       1  UNL1        0.0342
     27 H           1.6900   -0.0969    0.0000 H       1  UNL1        0.0342
@<TRIPOS>BOND
     1     1     8    1
     2     1    10    1
     3     2    10    2
     4     3     4    1
     5     3     6    1
     6     3    12    1
     7     3    13    1
     8     4     9    1
     9     4    14    1
    10     4    15    1
    11     5     7    1
    12     5     8    1
    13     5    16    1
    14     5    17    1
    15     6     7    2
    16     6    18    1
    17     7    19    1
    18     8    20    1
    19     8    21    1
    20     9    22    1
    21     9    23    1
    22     9    24    1
    23    10    11    1
    24    11    25    1
    25    11    26    1
    26    11    27    1
