@<TRIPOS>MOLECULE
IMPHY012911
 40 41 0 0 0
SMALL
GASTEIGER

@<TRIPOS>ATOM
      1 O           3.7320   -1.7500    0.0000 O.3     1  UNL1       -0.3837
      2 C           3.7320    0.2500    0.0000 C.3     1  UNL1        0.0131
      3 C           2.8660    0.7500    0.0000 C.3     1  UNL1       -0.0292
      4 C           3.7320   -0.7500    0.0000 C.3     1  UNL1        0.0935
      5 C           2.0000    0.2500    0.0000 C.3     1  UNL1       -0.0456
      6 C           4.6260   -1.2847    0.0000 C.3     1  UNL1       -0.0159
      7 C           2.8660    1.7500    0.0000 C.3     1  UNL1       -0.0432
      8 C           2.8660   -1.2500    0.0000 C.2     1  UNL1       -0.0449
      9 C           2.0000   -0.7500    0.0000 C.3     1  UNL1       -0.0290
     10 C           4.6260    0.7847    0.0000 C.2     1  UNL1       -0.0786
     11 C           5.5321   -0.7708    0.0000 C.3     1  UNL1       -0.0291
     12 C           5.5321    0.2708    0.0000 C.2     1  UNL1       -0.0761
     13 C           2.0000    2.2500    0.0000 C.3     1  UNL1       -0.0624
     14 C           3.7320    2.2500    0.0000 C.3     1  UNL1       -0.0624
     15 C           2.8660   -2.2500    0.0000 C.2     1  UNL1       -0.0967
     16 C           6.3961    0.7742    0.0000 C.3     1  UNL1       -0.0438
     17 H           3.7273    0.8700    0.0000 H       1  UNL1        0.0377
     18 H           2.3291    1.0600    0.0000 H       1  UNL1        0.0310
     19 H           1.7880    0.8326    0.0000 H       1  UNL1        0.0271
     20 H           1.3894    0.1423    0.0000 H       1  UNL1        0.0271
     21 H           4.2214   -1.7544    0.0000 H       1  UNL1        0.0299
     22 H           5.0196   -1.7637    0.0000 H       1  UNL1        0.0299
     23 H           2.8660    2.3700    0.0000 H       1  UNL1        0.0298
     24 H           1.3894   -0.6423    0.0000 H       1  UNL1        0.0311
     25 H           1.7880   -1.3326    0.0000 H       1  UNL1        0.0311
     26 H           4.6188    1.4046    0.0000 H       1  UNL1        0.0575
     27 H           5.7411   -1.3545    0.0000 H       1  UNL1        0.0311
     28 H           6.1429   -0.6647    0.0000 H       1  UNL1        0.0311
     29 H           4.2690   -2.0600    0.0000 H       1  UNL1        0.2106
     30 H           2.3100    2.7869    0.0000 H       1  UNL1        0.0232
     31 H           1.4631    2.5600    0.0000 H       1  UNL1        0.0232
     32 H           1.6900    1.7131    0.0000 H       1  UNL1        0.0232
     33 H           4.0420    1.7131    0.0000 H       1  UNL1        0.0232
     34 H           4.2690    2.5600    0.0000 H       1  UNL1        0.0232
     35 H           3.4220    2.7869    0.0000 H       1  UNL1        0.0232
     36 H           2.3291   -2.5600    0.0000 H       1  UNL1        0.0535
     37 H           3.4030   -2.5600    0.0000 H       1  UNL1        0.0535
     38 H           6.7082    0.2384    0.0000 H       1  UNL1        0.0274
     39 H           6.9319    1.0862    0.0000 H       1  UNL1        0.0274
     40 H           6.0841    1.3099    0.0000 H       1  UNL1        0.0274
@<TRIPOS>BOND
     1     4     1    1
     2     1    29    1
     3     2     3    1
     4     2     4    1
     5     2    10    1
     6     2    17    1
     7     3     5    1
     8     3     7    1
     9     3    18    1
    10     4     6    1
    11     4     8    1
    12     5     9    1
    13     5    19    1
    14     5    20    1
    15     6    11    1
    16     6    21    1
    17     6    22    1
    18     7    13    1
    19     7    14    1
    20     7    23    1
    21     8     9    1
    22     8    15    2
    23     9    24    1
    24     9    25    1
    25    10    12    2
    26    10    26    1
    27    11    12    1
    28    11    27    1
    29    11    28    1
    30    12    16    1
    31    13    30    1
    32    13    31    1
    33    13    32    1
    34    14    33    1
    35    14    34    1
    36    14    35    1
    37    15    36    1
    38    15    37    1
    39    16    38    1
    40    16    39    1
    41    16    40    1
