@<TRIPOS>MOLECULE
IMPHY001409
 95 101 0 0 0
SMALL
GASTEIGER

@<TRIPOS>ATOM
      1 O          10.4869    3.3665    0.0000 O.3     1  UNL1       -0.3591
      2 O          10.1449    1.5776    0.0000 O.3     1  UNL1       -0.3183
      3 O           9.2588    1.0932    0.0000 O.3     1  UNL1       -0.3193
      4 O           9.3647   -0.4833    0.0000 O.3     1  UNL1       -0.3090
      5 O          11.2924   -1.6012    0.0000 O.3     1  UNL1       -0.4541
      6 O          13.3221    3.4103    0.0000 O.3     1  UNL1       -0.3773
      7 O          12.9100    4.1182    0.0000 O.3     1  UNL1       -0.3854
      8 O          11.7342    4.9299    0.0000 O.3     1  UNL1       -0.3920
      9 O          14.6043    3.3794    0.0000 O.2     1  UNL1       -0.2892
     10 O          13.0191   -1.4651    0.0000 O.2     1  UNL1       -0.2449
     11 C          11.0751    1.4604    0.0000 C.3     1  UNL1        0.0480
     12 C          11.9761    1.0265    0.0000 C.3     1  UNL1        0.0981
     13 C          10.8526    2.4354    0.0000 C.3     1  UNL1        0.1013
     14 C          11.4761    3.2172    0.0000 C.3     1  UNL1        0.1479
     15 C          10.2055    0.8870    0.0000 C.3     1  UNL1        0.1085
     16 C          12.8771    1.4604    0.0000 C.3     1  UNL1        0.0465
     17 C          12.0699   -0.0109    0.0000 C.3     1  UNL1        0.0269
     18 C          10.2754   -0.1523    0.0000 C.3     1  UNL1        0.1589
     19 C          13.0996    2.4354    0.0000 C.3     1  UNL1        0.1650
     20 C          11.2139   -0.6042    0.0000 C.3     1  UNL1        0.1438
     21 C          12.4761    3.2172    0.0000 C.3     1  UNL1        0.1252
     22 C           8.7520    0.2673    0.0000 C.3     1  UNL1        0.2873
     23 C          12.0996    3.9990    0.0000 C.3     1  UNL1        0.0783
     24 C          13.7317    0.9528    0.0000 C.2     1  UNL1       -0.0687
     25 C          12.9759   -0.4343    0.0000 C.3     1  UNL1       -0.0563
     26 C          14.0899    2.5219    0.0000 C.2     1  UNL1        0.1933
     27 C          10.2253   -1.1510    0.0000 C.2     1  UNL1       -0.0421
     28 C           7.7543    0.2003    0.0000 C.3     1  UNL1        0.0294
     29 C          14.4798    1.6075    0.0000 C.2     1  UNL1       -0.0085
     30 C           7.3134   -0.6973    0.0000 C.3     1  UNL1       -0.0457
     31 C           9.3354   -1.6071    0.0000 C.3     1  UNL1       -0.0411
     32 C          10.1753   -2.1498    0.0000 C.2     1  UNL1       -0.0968
     33 C          15.4547    1.3849    0.0000 C.3     1  UNL1       -0.0366
     34 C          12.1951   -2.0316    0.0000 C.2     1  UNL1        0.3396
     35 C           6.3157   -0.7643    0.0000 C.3     1  UNL1       -0.0528
     36 C          12.2736   -3.0285    0.0000 C.ar    1  UNL1        0.0590
     37 C           5.8749   -1.6619    0.0000 C.3     1  UNL1       -0.0531
     38 C           4.8771   -1.7290    0.0000 C.3     1  UNL1       -0.0531
     39 C          11.4496   -3.5950    0.0000 C.ar    1  UNL1       -0.0478
     40 C          13.1763   -3.4589    0.0000 C.ar    1  UNL1       -0.0478
     41 C           4.4363   -2.6266    0.0000 C.3     1  UNL1       -0.0531
     42 C          11.5281   -4.5919    0.0000 C.ar    1  UNL1       -0.0610
     43 C          13.2548   -4.4558    0.0000 C.ar    1  UNL1       -0.0610
     44 C          12.4308   -5.0223    0.0000 C.ar    1  UNL1       -0.0617
     45 C           3.4386   -2.6936    0.0000 C.3     1  UNL1       -0.0533
     46 C           2.9978   -3.5912    0.0000 C.3     1  UNL1       -0.0559
     47 C           2.0000   -3.6583    0.0000 C.3     1  UNL1       -0.0653
     48 H          10.5503    2.1290    0.0000 H       1  UNL1        0.0381
     49 H          10.0404    2.1847    0.0000 H       1  UNL1        0.0631
     50 H           9.5192    1.3885    0.0000 H       1  UNL1        0.0636
     51 H          12.8400    0.6112    0.0000 H       1  UNL1        0.0405
     52 H          12.5774    0.3453    0.0000 H       1  UNL1        0.0363
     53 H          11.7740   -0.8700    0.0000 H       1  UNL1        0.0771
     54 H          12.1462    3.7422    0.0000 H       1  UNL1        0.0657
     55 H          12.5098    3.5342    0.0000 H       1  UNL1        0.0588
     56 H          12.6286    4.3223    0.0000 H       1  UNL1        0.0588
     57 H          13.7884    0.3354    0.0000 H       1  UNL1        0.0580
     58 H          12.7133   -0.9960    0.0000 H       1  UNL1        0.0234
     59 H          13.5375   -0.6968    0.0000 H       1  UNL1        0.0234
     60 H          13.2384    0.1274    0.0000 H       1  UNL1        0.0234
     61 H           7.8208    0.8167    0.0000 H       1  UNL1        0.0343
     62 H           7.1588    0.3728    0.0000 H       1  UNL1        0.0343
     63 H          13.9146    3.5930    0.0000 H       1  UNL1        0.2109
     64 H          12.5607    4.6304    0.0000 H       1  UNL1        0.2100
     65 H           7.2470   -1.3137    0.0000 H       1  UNL1        0.0268
     66 H           7.9090   -0.8698    0.0000 H       1  UNL1        0.0268
     67 H           9.0526   -1.0553    0.0000 H       1  UNL1        0.0275
     68 H           8.7836   -1.8898    0.0000 H       1  UNL1        0.0275
     69 H           9.6181   -2.1588    0.0000 H       1  UNL1        0.0275
     70 H          11.1212    5.0223    0.0000 H       1  UNL1        0.2095
     71 H           9.6235   -2.4325    0.0000 H       1  UNL1        0.0535
     72 H          10.6960   -2.4863    0.0000 H       1  UNL1        0.0535
     73 H          15.3168    0.7805    0.0000 H       1  UNL1        0.0279
     74 H          16.0592    1.2470    0.0000 H       1  UNL1        0.0279
     75 H          15.5927    1.9894    0.0000 H       1  UNL1        0.0279
     76 H           6.3822   -0.1479    0.0000 H       1  UNL1        0.0265
     77 H           5.7202   -0.5918    0.0000 H       1  UNL1        0.0265
     78 H           5.8084   -2.2784    0.0000 H       1  UNL1        0.0265
     79 H           6.4704   -1.8345    0.0000 H       1  UNL1        0.0265
     80 H           4.9436   -1.1126    0.0000 H       1  UNL1        0.0265
     81 H           4.2816   -1.5565    0.0000 H       1  UNL1        0.0265
     82 H          10.8899   -3.3281    0.0000 H       1  UNL1        0.0626
     83 H          13.6872   -3.1076    0.0000 H       1  UNL1        0.0626
     84 H           4.3698   -3.2430    0.0000 H       1  UNL1        0.0265
     85 H           5.0318   -2.7991    0.0000 H       1  UNL1        0.0265
     86 H          11.0172   -4.9431    0.0000 H       1  UNL1        0.0618
     87 H          13.8145   -4.7226    0.0000 H       1  UNL1        0.0618
     88 H          12.4795   -5.6404    0.0000 H       1  UNL1        0.0618
     89 H           3.5050   -2.0772    0.0000 H       1  UNL1        0.0265
     90 H           2.8430   -2.5211    0.0000 H       1  UNL1        0.0265
     91 H           2.9313   -4.2076    0.0000 H       1  UNL1        0.0263
     92 H           3.5933   -3.7637    0.0000 H       1  UNL1        0.0263
     93 H           1.9584   -3.0397    0.0000 H       1  UNL1        0.0230
     94 H           1.3814   -3.6998    0.0000 H       1  UNL1        0.0230
     95 H           2.0416   -4.2769    0.0000 H       1  UNL1        0.0230
@<TRIPOS>BOND
     1     1    13    1
     2     1    14    1
     3    12     2    1
     4     2    22    1
     5     3    15    1
     6     3    22    1
     7     4    18    1
     8     4    22    1
     9    20     5    1
    10     5    34    1
    11    19     6    1
    12     6    63    1
    13    21     7    1
    14     7    64    1
    15     8    23    1
    16     8    70    1
    17     9    26    2
    18    10    34    2
    19    11    12    1
    20    11    13    1
    21    11    15    1
    22    11    48    1
    23    12    16    1
    24    12    17    1
    25    13    14    1
    26    13    49    1
    27    14    21    1
    28    14    23    1
    29    15    18    1
    30    15    50    1
    31    16    19    1
    32    16    24    1
    33    16    51    1
    34    17    20    1
    35    17    25    1
    36    17    52    1
    37    18    20    1
    38    18    27    1
    39    19    21    1
    40    19    26    1
    41    20    53    1
    42    21    54    1
    43    22    28    1
    44    23    55    1
    45    23    56    1
    46    24    29    2
    47    24    57    1
    48    25    58    1
    49    25    59    1
    50    25    60    1
    51    26    29    1
    52    27    31    1
    53    27    32    2
    54    28    30    1
    55    28    61    1
    56    28    62    1
    57    29    33    1
    58    30    35    1
    59    30    65    1
    60    30    66    1
    61    31    67    1
    62    31    68    1
    63    31    69    1
    64    32    71    1
    65    32    72    1
    66    33    73    1
    67    33    74    1
    68    33    75    1
    69    34    36    1
    70    35    37    1
    71    35    76    1
    72    35    77    1
    73    36    39   ar
    74    36    40   ar
    75    37    38    1
    76    37    78    1
    77    37    79    1
    78    38    41    1
    79    38    80    1
    80    38    81    1
    81    39    42   ar
    82    39    82    1
    83    40    43   ar
    84    40    83    1
    85    41    45    1
    86    41    84    1
    87    41    85    1
    88    42    44   ar
    89    42    86    1
    90    43    44   ar
    91    43    87    1
    92    44    88    1
    93    45    46    1
    94    45    89    1
    95    45    90    1
    96    46    47    1
    97    46    91    1
    98    46    92    1
    99    47    93    1
   100    47    94    1
   101    47    95    1
