@<TRIPOS>MOLECULE
IMPHY001595
 24 26 0 0 0
SMALL
GASTEIGER

@<TRIPOS>ATOM
      1 O           7.6255    1.2750    0.0000 O.3     1  UNL1       -0.4760
      2 OXT         5.9721    1.7911    0.0000 O.2     1  UNL1       -0.2433
      3 N           4.5274    0.4568    0.0000 N.ar    1  UNL1       -0.3523
      4 N           7.0547   -0.6675    0.0000 N.ar    1  UNL1       -0.2465
      5 C           5.0274   -1.0821    0.0000 C.ar    1  UNL1        0.0111
      6 C           4.0274   -1.0821    0.0000 C.ar    1  UNL1        0.0075
      7 C           5.3364   -0.1310    0.0000 C.ar    1  UNL1        0.0803
      8 C           3.7183   -0.1310    0.0000 C.ar    1  UNL1        0.0475
      9 CA          6.3518    0.1012    0.0000 C.ar    1  UNL1        0.1713
     10 C           3.3424   -1.8668    0.0000 C.ar    1  UNL1       -0.0520
     11 C           5.7123   -1.8668    0.0000 C.ar    1  UNL1       -0.0338
     12 C           2.7029    0.1012    0.0000 C.ar    1  UNL1       -0.0378
     13 C           2.3219   -1.6581    0.0000 C.ar    1  UNL1       -0.0611
     14 C           2.0000   -0.6675    0.0000 C.ar    1  UNL1       -0.0598
     15 C           6.7328   -1.6581    0.0000 C.ar    1  UNL1        0.0292
     16 C           6.6498    1.0558    0.0000 C.2     1  UNL1        0.3574
     17 H           4.5274    1.0768    0.0000 H       1  UNL1        0.1660
     18 H           3.5408   -2.4542    0.0000 H       1  UNL1        0.0624
     19 H           5.5139   -2.4542    0.0000 H       1  UNL1        0.0639
     20 H           2.5182    0.6931    0.0000 H       1  UNL1        0.0638
     21 H           1.9088   -2.1205    0.0000 H       1  UNL1        0.0618
     22 H           1.3940   -0.5362    0.0000 H       1  UNL1        0.0618
     23 H           7.1459   -2.1205    0.0000 H       1  UNL1        0.0830
     24 H           7.8102    1.8668    0.0000 H       1  UNL1        0.2955
@<TRIPOS>BOND
     1     1    16    1
     2     1    24    1
     3     2    16    2
     4     3     7   ar
     5     3     8   ar
     6     3    17    1
     7     4     9   ar
     8     4    15   ar
     9     5     6   ar
    10     5     7   ar
    11     5    11   ar
    12     6     8   ar
    13     6    10   ar
    14     7     9   ar
    15     8    12   ar
    16     9    16    1
    17    10    13   ar
    18    10    18    1
    19    11    15   ar
    20    11    19    1
    21    12    14   ar
    22    12    20    1
    23    13    14   ar
    24    13    21    1
    25    14    22    1
    26    15    23    1
