@<TRIPOS>MOLECULE
IMPHY005098
 147 154 0 0 0
SMALL
GASTEIGER

@<TRIPOS>ATOM
      1 O          11.8811    3.0921    0.0000 O.3     1  UNL1       -0.3911
      2 O          10.3840   -4.9709    0.0000 O.3     1  UNL1       -0.3912
      3 O           9.4651   -4.6635    0.0000 O.3     1  UNL1       -0.3481
      4 O          13.4360    3.9660    0.0000 O.3     1  UNL1       -0.3480
      5 O           7.7331   -4.6635    0.0000 O.3     1  UNL1       -0.3405
      6 O          11.9394    4.8378    0.0000 O.3     1  UNL1       -0.3405
      7 O           9.4651   -6.6635    0.0000 O.3     1  UNL1       -0.3841
      8 O          14.4427    5.6942    0.0000 O.3     1  UNL1       -0.3841
      9 O           7.7331   -7.6635    0.0000 O.3     1  UNL1       -0.3864
     10 O          13.4494    7.4301    0.0000 O.3     1  UNL1       -0.3864
     11 O           6.0010   -6.6635    0.0000 O.3     1  UNL1       -0.3865
     12 O          11.4494    7.4378    0.0000 O.3     1  UNL1       -0.3865
     13 O           6.0010   -3.6635    0.0000 O.3     1  UNL1       -0.3460
     14 O           9.9461    6.5776    0.0000 O.3     1  UNL1       -0.3924
     15 O           5.1350   -2.1635    0.0000 O.3     1  UNL1       -0.3405
     16 O           4.2690   -4.6635    0.0000 O.3     1  UNL1       -0.3841
     17 O           2.5369   -3.6635    0.0000 O.3     1  UNL1       -0.3864
     18 O           2.5369   -1.6635    0.0000 O.3     1  UNL1       -0.3865
     19 O           3.4030   -0.1635    0.0000 O.3     1  UNL1       -0.3924
     20 C          11.9188   -0.4379    0.0000 C.3     1  UNL1       -0.0193
     21 C          12.4222   -1.3020    0.0000 C.3     1  UNL1       -0.0257
     22 C          11.9188   -2.2140    0.0000 C.3     1  UNL1       -0.0249
     23 C          12.4155    0.4300    0.0000 C.3     1  UNL1       -0.0028
     24 C          10.8773   -2.2260    0.0000 C.3     1  UNL1       -0.0255
     25 C          10.8773   -0.4259    0.0000 C.3     1  UNL1       -0.0463
     26 C          13.4155    0.4339    0.0000 C.2     1  UNL1       -0.0632
     27 C          13.9467    1.3299    0.0000 C.3     1  UNL1       -0.0088
     28 C          10.3530   -1.3259    0.0000 C.3     1  UNL1       -0.0485
     29 C          10.3312   -3.1635    0.0000 C.3     1  UNL1        0.0206
     30 C          13.4294    2.2340    0.0000 C.3     1  UNL1        0.0267
     31 C          11.8774    1.3219    0.0000 C.3     1  UNL1       -0.0166
     32 C          13.4222   -1.2982    0.0000 C.3     1  UNL1       -0.0306
     33 C          12.4865   -3.1386    0.0000 C.3     1  UNL1       -0.0447
     34 C          12.3877    2.2300    0.0000 C.3     1  UNL1        0.0643
     35 C          11.1503    0.2019    0.0000 C.3     1  UNL1       -0.0585
     36 C          13.9188   -0.4302    0.0000 C.2     1  UNL1       -0.0836
     37 C          10.8773   -4.1011    0.0000 C.3     1  UNL1        0.0630
     38 C          12.9188   -2.2024    0.0000 C.3     1  UNL1       -0.0590
     39 C          11.4745    0.7685    0.0000 C.3     1  UNL1       -0.0552
     40 C          11.9622   -4.0885    0.0000 C.3     1  UNL1       -0.0257
     41 C          15.0315    1.3090    0.0000 C.3     1  UNL1       -0.0406
     42 C          13.9610    3.1798    0.0000 C.3     1  UNL1       -0.0419
     43 C          15.5848    2.2423    0.0000 C.3     1  UNL1       -0.0343
     44 C          15.0460    3.1840    0.0000 C.3     1  UNL1       -0.0472
     45 C           9.4651   -3.6635    0.0000 C.3     1  UNL1        0.0588
     46 C          12.9327    3.1019    0.0000 C.3     1  UNL1        0.0593
     47 C           9.4651   -2.6635    0.0000 C.3     1  UNL1       -0.0548
     48 C          16.4547    2.7356    0.0000 C.3     1  UNL1       -0.0598
     49 C          16.4470    1.7356    0.0000 C.3     1  UNL1       -0.0598
     50 C           8.5991   -5.1635    0.0000 C.3     1  UNL1        0.1879
     51 C          12.9394    4.8340    0.0000 C.3     1  UNL1        0.1879
     52 C           8.5991   -6.1635    0.0000 C.3     1  UNL1        0.1341
     53 C          13.4427    5.6980    0.0000 C.3     1  UNL1        0.1341
     54 C           7.7331   -6.6635    0.0000 C.3     1  UNL1        0.1141
     55 C          12.9461    6.5660    0.0000 C.3     1  UNL1        0.1141
     56 C           6.8671   -5.1635    0.0000 C.3     1  UNL1        0.1134
     57 C          11.4427    5.7058    0.0000 C.3     1  UNL1        0.1130
     58 C           6.8671   -6.1635    0.0000 C.3     1  UNL1        0.1119
     59 C          11.9461    6.5698    0.0000 C.3     1  UNL1        0.1119
     60 C           6.0010   -4.6635    0.0000 C.3     1  UNL1        0.0796
     61 C          10.4427    5.7096    0.0000 C.3     1  UNL1        0.0730
     62 C           5.1350   -3.1635    0.0000 C.3     1  UNL1        0.1880
     63 C           4.2690   -3.6635    0.0000 C.3     1  UNL1        0.1341
     64 C           3.4030   -3.1635    0.0000 C.3     1  UNL1        0.1141
     65 C           4.2690   -1.6635    0.0000 C.3     1  UNL1        0.1130
     66 C           3.4030   -2.1635    0.0000 C.3     1  UNL1        0.1119
     67 C           4.2690   -0.6635    0.0000 C.3     1  UNL1        0.0730
     68 H          12.8557   -2.0332    0.0000 H       1  UNL1        0.0315
     69 H          10.0273   -2.2260    0.0000 H       1  UNL1        0.0313
     70 H          10.9904    0.1837    0.0000 H       1  UNL1        0.0271
     71 H          10.2960   -0.2101    0.0000 H       1  UNL1        0.0271
     72 H          14.3603    0.5873    0.0000 H       1  UNL1        0.0353
     73 H           9.8786   -0.9268    0.0000 H       1  UNL1        0.0268
     74 H           9.8786   -1.7251    0.0000 H       1  UNL1        0.0268
     75 H          11.3969    1.7137    0.0000 H       1  UNL1        0.0299
     76 H          11.4092    0.9155    0.0000 H       1  UNL1        0.0299
     77 H          13.3169   -1.9091    0.0000 H       1  UNL1        0.0310
     78 H          14.0056   -1.5079    0.0000 H       1  UNL1        0.0310
     79 H          12.9700   -3.5267    0.0000 H       1  UNL1        0.0271
     80 H          12.9516   -2.7286    0.0000 H       1  UNL1        0.0271
     81 H          11.7678    2.2240    0.0000 H       1  UNL1        0.0600
     82 H          11.5470    0.6784    0.0000 H       1  UNL1        0.0235
     83 H          10.6738    0.5986    0.0000 H       1  UNL1        0.0235
     84 H          10.7536   -0.2746    0.0000 H       1  UNL1        0.0235
     85 H          14.5388   -0.4278    0.0000 H       1  UNL1        0.0572
     86 H          10.2573   -4.1046    0.0000 H       1  UNL1        0.0599
     87 H          12.9259   -2.8223    0.0000 H       1  UNL1        0.0235
     88 H          13.5387   -2.1952    0.0000 H       1  UNL1        0.0235
     89 H          12.9116   -1.5824    0.0000 H       1  UNL1        0.0235
     90 H          11.6844    1.3519    0.0000 H       1  UNL1        0.0238
     91 H          10.8911    0.9784    0.0000 H       1  UNL1        0.0238
     92 H          11.2647    0.1851    0.0000 H       1  UNL1        0.0238
     93 H          11.8632   -4.7006    0.0000 H       1  UNL1        0.0290
     94 H          12.5483   -4.2908    0.0000 H       1  UNL1        0.0290
     95 H          14.9137    0.7003    0.0000 H       1  UNL1        0.0276
     96 H          15.6111    1.0887    0.0000 H       1  UNL1        0.0276
     97 H          14.0647    3.7911    0.0000 H       1  UNL1        0.0272
     98 H          13.3765    3.3866    0.0000 H       1  UNL1        0.0272
     99 H          15.6288    3.3953    0.0000 H       1  UNL1        0.0271
    100 H          14.9375    3.7944    0.0000 H       1  UNL1        0.0271
    101 H           9.2531   -3.0809    0.0000 H       1  UNL1        0.0567
    102 H           8.8546   -3.7712    0.0000 H       1  UNL1        0.0567
    103 H          12.4593    3.5023    0.0000 H       1  UNL1        0.0567
    104 H          12.4562    2.7052    0.0000 H       1  UNL1        0.0567
    105 H           9.7751   -2.1266    0.0000 H       1  UNL1        0.0237
    106 H           8.9282   -2.3535    0.0000 H       1  UNL1        0.0237
    107 H           9.1551   -3.2005    0.0000 H       1  UNL1        0.0237
    108 H          11.2611    3.0873    0.0000 H       1  UNL1        0.2098
    109 H          16.7605    2.1963    0.0000 H       1  UNL1        0.0235
    110 H          16.9940    3.0414    0.0000 H       1  UNL1        0.0235
    111 H          16.1488    3.2749    0.0000 H       1  UNL1        0.0235
    112 H          16.1328    1.2011    0.0000 H       1  UNL1        0.0235
    113 H          16.9815    1.4215    0.0000 H       1  UNL1        0.0235
    114 H          16.7611    2.2702    0.0000 H       1  UNL1        0.0235
    115 H          10.6981   -5.5054    0.0000 H       1  UNL1        0.2098
    116 H           8.5991   -4.5435    0.0000 H       1  UNL1        0.0937
    117 H          12.6273    4.2982    0.0000 H       1  UNL1        0.0937
    118 H           8.5991   -6.7835    0.0000 H       1  UNL1        0.0671
    119 H          13.7506    5.1599    0.0000 H       1  UNL1        0.0671
    120 H           7.1962   -6.9735    0.0000 H       1  UNL1        0.0648
    121 H          13.5661    6.5636    0.0000 H       1  UNL1        0.0648
    122 H           6.8671   -4.5435    0.0000 H       1  UNL1        0.0647
    123 H          11.1307    5.1700    0.0000 H       1  UNL1        0.0647
    124 H           6.3301   -5.8535    0.0000 H       1  UNL1        0.0647
    125 H          12.2581    7.1056    0.0000 H       1  UNL1        0.0647
    126 H          10.0021   -6.3535    0.0000 H       1  UNL1        0.2101
    127 H          14.7548    6.2299    0.0000 H       1  UNL1        0.2101
    128 H           5.3905   -4.5559    0.0000 H       1  UNL1        0.0587
    129 H           5.7890   -5.2461    0.0000 H       1  UNL1        0.0587
    130 H           9.8593    5.4998    0.0000 H       1  UNL1        0.0584
    131 H          10.5481    5.0986    0.0000 H       1  UNL1        0.0584
    132 H           7.1962   -7.9735    0.0000 H       1  UNL1        0.2100
    133 H          13.1415    7.9682    0.0000 H       1  UNL1        0.2100
    134 H           5.4641   -6.3535    0.0000 H       1  UNL1        0.2100
    135 H          11.7615    7.9735    0.0000 H       1  UNL1        0.2100
    136 H           9.3261    6.5799    0.0000 H       1  UNL1        0.2095
    137 H           5.1350   -3.7835    0.0000 H       1  UNL1        0.0937
    138 H           3.7320   -3.9735    0.0000 H       1  UNL1        0.0671
    139 H           2.8660   -2.8535    0.0000 H       1  UNL1        0.0648
    140 H           4.8059   -1.3535    0.0000 H       1  UNL1        0.0647
    141 H           3.4030   -1.5435    0.0000 H       1  UNL1        0.0647
    142 H           3.7320   -4.9735    0.0000 H       1  UNL1        0.2101
    143 H           4.8796   -0.7712    0.0000 H       1  UNL1        0.0584
    144 H           4.4810   -0.0809    0.0000 H       1  UNL1        0.0584
    145 H           2.0000   -3.3535    0.0000 H       1  UNL1        0.2100
    146 H           2.0000   -1.9735    0.0000 H       1  UNL1        0.2100
    147 H           3.4030    0.4565    0.0000 H       1  UNL1        0.2095
@<TRIPOS>BOND
     1    34     1    1
     2     1   108    1
     3    37     2    1
     4     2   115    1
     5     3    45    1
     6    50     3    1
     7     4    46    1
     8    51     4    1
     9     5    50    1
    10     5    56    1
    11     6    51    1
    12     6    57    1
    13    52     7    1
    14     7   126    1
    15    53     8    1
    16     8   127    1
    17    54     9    1
    18     9   132    1
    19    55    10    1
    20    10   133    1
    21    58    11    1
    22    11   134    1
    23    59    12    1
    24    12   135    1
    25    13    60    1
    26    62    13    1
    27    14    61    1
    28    14   136    1
    29    15    62    1
    30    15    65    1
    31    63    16    1
    32    16   142    1
    33    64    17    1
    34    17   145    1
    35    66    18    1
    36    18   146    1
    37    19    67    1
    38    19   147    1
    39    20    21    1
    40    20    23    1
    41    20    25    1
    42    20    35    1
    43    21    22    1
    44    21    32    1
    45    21    68    1
    46    22    24    1
    47    22    33    1
    48    22    38    1
    49    23    26    1
    50    23    31    1
    51    23    39    1
    52    24    28    1
    53    24    29    1
    54    24    69    1
    55    25    28    1
    56    25    70    1
    57    25    71    1
    58    26    27    1
    59    26    36    2
    60    27    30    1
    61    27    41    1
    62    27    72    1
    63    28    73    1
    64    28    74    1
    65    29    37    1
    66    29    45    1
    67    29    47    1
    68    30    34    1
    69    30    42    1
    70    30    46    1
    71    31    34    1
    72    31    75    1
    73    31    76    1
    74    32    36    1
    75    32    77    1
    76    32    78    1
    77    33    40    1
    78    33    79    1
    79    33    80    1
    80    34    81    1
    81    35    82    1
    82    35    83    1
    83    35    84    1
    84    36    85    1
    85    37    40    1
    86    37    86    1
    87    38    87    1
    88    38    88    1
    89    38    89    1
    90    39    90    1
    91    39    91    1
    92    39    92    1
    93    40    93    1
    94    40    94    1
    95    41    43    1
    96    41    95    1
    97    41    96    1
    98    42    44    1
    99    42    97    1
   100    42    98    1
   101    43    44    1
   102    43    48    1
   103    43    49    1
   104    44    99    1
   105    44   100    1
   106    45   101    1
   107    45   102    1
   108    46   103    1
   109    46   104    1
   110    47   105    1
   111    47   106    1
   112    47   107    1
   113    48   109    1
   114    48   110    1
   115    48   111    1
   116    49   112    1
   117    49   113    1
   118    49   114    1
   119    50    52    1
   120    50   116    1
   121    51    53    1
   122    51   117    1
   123    52    54    1
   124    52   118    1
   125    53    55    1
   126    53   119    1
   127    54    58    1
   128    54   120    1
   129    55    59    1
   130    55   121    1
   131    56    58    1
   132    56    60    1
   133    56   122    1
   134    57    59    1
   135    57    61    1
   136    57   123    1
   137    58   124    1
   138    59   125    1
   139    60   128    1
   140    60   129    1
   141    61   130    1
   142    61   131    1
   143    62    63    1
   144    62   137    1
   145    63    64    1
   146    63   138    1
   147    64    66    1
   148    64   139    1
   149    65    66    1
   150    65    67    1
   151    65   140    1
   152    66   141    1
   153    67   143    1
   154    67   144    1
