@<TRIPOS>MOLECULE
IMPHY003405
 40 39 0 0 0
SMALL
GASTEIGER

@<TRIPOS>ATOM
      1 S           7.7331   -1.3450    0.0000 S.3     1  UNL1       -0.1759
      2 O           6.8671   -0.8450    0.0000 O.2     1  UNL1       -0.2758
      3 O           9.4651    1.6550    0.0000 O.2     1  UNL1       -0.2738
      4 O           2.5369    0.6550    0.0000 O.3     1  UNL1       -0.4795
      5 OXT         3.4030   -0.8450    0.0000 O.2     1  UNL1       -0.2493
      6 O          13.7953    0.1550    0.0000 O.3     1  UNL1       -0.4806
      7 O          12.9292    1.6550    0.0000 O.2     1  UNL1       -0.2510
      8 N           7.7331    0.6550    0.0000 N.am    1  UNL1       -0.3033
      9 N          10.3312    0.1550    0.0000 N.am    1  UNL1       -0.3132
     10 N           4.2690    1.6550    0.0000 N.3     1  UNL1       -0.3184
     11 C           8.5991    0.1550    0.0000 C.3     1  UNL1        0.1081
     12 C           5.1350    0.1550    0.0000 C.3     1  UNL1       -0.0191
     13 C           6.0010    0.6550    0.0000 C.3     1  UNL1        0.0259
     14 CA          4.2690    0.6550    0.0000 C.3     1  UNL1        0.1037
     15 C           6.8671    0.1550    0.0000 C.2     1  UNL1        0.2137
     16 C           8.5991   -0.8450    0.0000 C.3     1  UNL1        0.0177
     17 C           9.4651    0.6550    0.0000 C.2     1  UNL1        0.2342
     18 C          11.1972    0.6550    0.0000 C.3     1  UNL1        0.0217
     19 C           3.4030    0.1550    0.0000 C.2     1  UNL1        0.3217
     20 C          12.0632    0.1550    0.0000 C.3     1  UNL1        0.0603
     21 C          12.9292    0.6550    0.0000 C.2     1  UNL1        0.3062
     22 H           8.5991    0.7750    0.0000 H       1  UNL1        0.0603
     23 H           4.7365   -0.3199    0.0000 H       1  UNL1        0.0290
     24 H           5.5335   -0.3199    0.0000 H       1  UNL1        0.0290
     25 H           6.3996    1.1300    0.0000 H       1  UNL1        0.0359
     26 H           5.6025    1.1300    0.0000 H       1  UNL1        0.0359
     27 HA          4.8059    0.9650    0.0000 H       1  UNL1        0.0574
     28 H           7.7331    1.2750    0.0000 H       1  UNL1        0.1495
     29 H           8.8112   -1.4276    0.0000 H       1  UNL1        0.0397
     30 H           9.2097   -0.7373    0.0000 H       1  UNL1        0.0397
     31 H          10.3312   -0.4650    0.0000 H       1  UNL1        0.1487
     32 H          11.5957    1.1300    0.0000 H       1  UNL1        0.0467
     33 H          10.7987    1.1300    0.0000 H       1  UNL1        0.0467
     34 H1          3.7320    1.9650    0.0000 H       1  UNL1        0.1190
     35 H2          4.8059    1.9650    0.0000 H       1  UNL1        0.1190
     36 H          11.6647   -0.3199    0.0000 H       1  UNL1        0.0393
     37 H          12.4617   -0.3199    0.0000 H       1  UNL1        0.0393
     38 H           7.7331   -1.9650    0.0000 H       1  UNL1        0.1017
     39 H           2.0000    0.3450    0.0000 H       1  UNL1        0.2951
     40 H          14.3322    0.4650    0.0000 H       1  UNL1        0.2951
@<TRIPOS>BOND
     1     1    16    1
     2     1    38    1
     3     2    15    2
     4     3    17    2
     5     4    19    1
     6     4    39    1
     7     5    19    2
     8     6    21    1
     9     6    40    1
    10     7    21    2
    11    11     8    1
    12     8    15   am
    13     8    28    1
    14     9    17   am
    15     9    18    1
    16     9    31    1
    17    14    10    1
    18    10    34    1
    19    10    35    1
    20    11    16    1
    21    11    17    1
    22    11    22    1
    23    12    13    1
    24    12    14    1
    25    12    23    1
    26    12    24    1
    27    13    15    1
    28    13    25    1
    29    13    26    1
    30    14    19    1
    31    14    27    1
    32    16    29    1
    33    16    30    1
    34    18    20    1
    35    18    32    1
    36    18    33    1
    37    20    21    1
    38    20    36    1
    39    20    37    1
