@<TRIPOS>MOLECULE
IMPHY004413
 29 31 0 0 0
SMALL
GASTEIGER

@<TRIPOS>ATOM
      1 O           3.7702   -1.6927    0.0000 O.2     1  UNL1       -0.4596
      2 O           5.5301    1.3419    0.0000 O.3     1  UNL1       -0.5052
      3 O           7.2785    1.3765    0.0000 O.3     1  UNL1       -0.5059
      4 O           9.0602   -1.6822    0.0000 O.3     1  UNL1       -0.5066
      5 O           3.7817    1.3765    0.0000 O.2     1  UNL1       -0.2869
      6 C           6.3961   -0.1581    0.0000 C.ar    1  UNL1        0.0661
      7 C           6.3961   -1.1581    0.0000 C.ar    1  UNL1       -0.0039
      8 C           4.6641   -0.1581    0.0000 C.ar    1  UNL1        0.1059
      9 C           4.6641   -1.1581    0.0000 C.ar    1  UNL1        0.1429
     10 C           5.5301    0.3419    0.0000 C.ar    1  UNL1        0.1424
     11 C           5.5301   -1.6581    0.0000 C.ar    1  UNL1       -0.0105
     12 C           7.2901    0.3766    0.0000 C.ar    1  UNL1        0.1315
     13 C           7.2901   -1.6927    0.0000 C.ar    1  UNL1       -0.0120
     14 C           3.7702    0.3766    0.0000 C.ar    1  UNL1        0.1963
     15 C           2.8641   -1.1789    0.0000 C.ar    1  UNL1        0.1062
     16 C           8.1962   -1.1789    0.0000 C.ar    1  UNL1        0.1209
     17 C           8.1962   -0.1372    0.0000 C.ar    1  UNL1        0.0220
     18 C           2.8641   -0.1372    0.0000 C.ar    1  UNL1        0.0237
     19 C           2.0000   -1.6822    0.0000 C.3     1  UNL1       -0.0062
     20 H           5.5301   -2.2781    0.0000 H       1  UNL1        0.0661
     21 H           7.2829   -2.3127    0.0000 H       1  UNL1        0.0660
     22 H           8.7319    0.1748    0.0000 H       1  UNL1        0.0691
     23 H           2.3284    0.1748    0.0000 H       1  UNL1        0.0689
     24 H           1.6879   -1.1465    0.0000 H       1  UNL1        0.0308
     25 H           1.4643   -1.9943    0.0000 H       1  UNL1        0.0308
     26 H           2.3121   -2.2180    0.0000 H       1  UNL1        0.0308
     27 H           4.9932    1.6519    0.0000 H       1  UNL1        0.2922
     28 H           7.8118    1.6927    0.0000 H       1  UNL1        0.2922
     29 H           9.5984   -1.3743    0.0000 H       1  UNL1        0.2921
@<TRIPOS>BOND
     1     1     9   ar
     2     1    15   ar
     3     2    10    1
     4     2    27    1
     5     3    12    1
     6     3    28    1
     7     4    16    1
     8     4    29    1
     9     5    14    2
    10     6     7   ar
    11     6    10   ar
    12     6    12   ar
    13     7    11   ar
    14     7    13   ar
    15     8     9   ar
    16     8    10   ar
    17     8    14   ar
    18     9    11   ar
    19    11    20    1
    20    12    17   ar
    21    13    16   ar
    22    13    21    1
    23    14    18   ar
    24    15    18   ar
    25    15    19    1
    26    16    17   ar
    27    17    22    1
    28    18    23    1
    29    19    24    1
    30    19    25    1
    31    19    26    1
