@<TRIPOS>MOLECULE
IMPHY016818
 18 18 0 0 0
SMALL
GASTEIGER

@<TRIPOS>ATOM
      1 O           2.8660    0.7500    0.0000 O.3     1  UNL1       -0.4260
      2 O           4.5981    0.7500    0.0000 O.2     1  UNL1       -0.2507
      3 C           2.8660   -0.2500    0.0000 C.ar    1  UNL1        0.1316
      4 C           2.0000   -0.7500    0.0000 C.ar    1  UNL1       -0.0192
      5 C           3.7320   -0.7500    0.0000 C.ar    1  UNL1       -0.0192
      6 C           2.0000   -1.7500    0.0000 C.ar    1  UNL1       -0.0583
      7 C           3.7320   -1.7500    0.0000 C.ar    1  UNL1       -0.0583
      8 C           2.8660   -2.2500    0.0000 C.ar    1  UNL1       -0.0615
      9 C           3.7320    1.2500    0.0000 C.2     1  UNL1        0.3092
     10 C           3.7320    2.2500    0.0000 C.3     1  UNL1        0.0336
     11 H           1.4631   -0.4400    0.0000 H       1  UNL1        0.0654
     12 H           4.2690   -0.4400    0.0000 H       1  UNL1        0.0654
     13 H           1.4631   -2.0600    0.0000 H       1  UNL1        0.0619
     14 H           4.2690   -2.0600    0.0000 H       1  UNL1        0.0619
     15 H           2.8660   -2.8700    0.0000 H       1  UNL1        0.0618
     16 H           4.3520    2.2500    0.0000 H       1  UNL1        0.0342
     17 H           3.7320    2.8700    0.0000 H       1  UNL1        0.0342
     18 H           3.1120    2.2500    0.0000 H       1  UNL1        0.0342
@<TRIPOS>BOND
     1     1     3    1
     2     1     9    1
     3     2     9    2
     4     3     4   ar
     5     3     5   ar
     6     4     6   ar
     7     4    11    1
     8     5     7   ar
     9     5    12    1
    10     6     8   ar
    11     6    13    1
    12     7     8   ar
    13     7    14    1
    14     8    15    1
    15     9    10    1
    16    10    16    1
    17    10    17    1
    18    10    18    1
