@<TRIPOS>MOLECULE
IMPHY010724
 48 53 0 0 0
SMALL
GASTEIGER

@<TRIPOS>ATOM
      1 O          10.9486   -3.9879    0.0000 O.3     1  UNL1       -0.4476
      2 C           9.8127   -3.3353    0.0000 C.3     1  UNL1        0.1937
      3 C           8.6888   -3.9879    0.0000 C.3     1  UNL1        0.0404
      4 C           8.6888   -5.3051    0.0000 C.3     1  UNL1        0.0201
      5 C           7.5649   -5.9577    0.0000 C.3     1  UNL1        0.1121
      6 O           8.8217   -6.2840    0.0000 O.3     1  UNL1       -0.3563
      7 C           7.9033   -7.2145    0.0000 C.3     1  UNL1        0.1495
      8 C           7.2749   -8.3625    0.0000 C.3     1  UNL1        0.1269
      9 C           6.0181   -8.7009    0.0000 C.3     1  UNL1        0.1780
     10 C           4.8822   -8.0725    0.0000 C.3     1  UNL1        0.0382
     11 C           4.5196   -6.8157    0.0000 C.3     1  UNL1        0.0380
     12 C           5.1601   -5.6677    0.0000 C.3     1  UNL1        0.0510
     13 C           6.4169   -5.3293    0.0000 C.3     1  UNL1        0.0120
     14 C           6.4169   -3.9879    0.0000 C.3     1  UNL1       -0.0011
     15 C           7.5649   -3.3353    0.0000 C.3     1  UNL1        0.0034
     16 C          10.9486   -5.3051    0.0000 C.2     1  UNL1        0.3169
     17 C           9.8127   -5.9577    0.0000 C.3     1  UNL1        0.1081
     18 C           5.5589   -7.3595    0.0000 C.2     1  UNL1        0.1551
     19 O           4.0362   -7.3595    0.0000 O.2     1  UNL1       -0.2959
     20 C           9.8127   -2.0302    0.0000 C.ar    1  UNL1        0.0580
     21 C          10.8761   -1.2568    0.0000 C.ar    1  UNL1        0.1789
     22 O          10.4773    0.0000    0.0000 O.2     1  UNL1       -0.4475
     23 C           9.1722    0.0000    0.0000 C.ar    1  UNL1        0.1795
     24 C           8.7613   -1.2568    0.0000 C.ar    1  UNL1        0.0430
     25 C           8.6888   -2.7915    0.0000 C.3     1  UNL1        0.0037
     26 O           6.0181  -10.0060    0.0000 O.3     1  UNL1       -0.4489
     27 C           7.1541  -10.6707    0.0000 C.2     1  UNL1        0.3368
     28 O           7.1541  -11.9758    0.0000 O.2     1  UNL1       -0.2453
     29 C           4.3988   -9.2809    0.0000 C.3     1  UNL1        0.0034
     30 C           3.5891   -8.2538    0.0000 C.3     1  UNL1        0.0034
     31 C           3.3958   -6.1752    0.0000 C.3     1  UNL1        0.2629
     32 O           3.3958   -4.8701    0.0000 O.3     1  UNL1       -0.4410
     33 C           2.2598   -4.2054    0.0000 C.2     1  UNL1        0.3179
     34 O           2.2598   -2.9003    0.0000 O.2     1  UNL1       -0.2501
     35 C           4.6405   -4.4955    0.0000 C.3     1  UNL1        0.0069
     36 O          12.0846   -5.9577    0.0000 O.2     1  UNL1       -0.2501
     37 C           8.2779  -10.0060    0.0000 C.2     1  UNL1        0.0495
     38 C           9.4139  -10.6586    0.0000 C.2     1  UNL1       -0.0236
     39 C          10.5377  -10.0060    0.0000 C.3     1  UNL1        0.0306
     40 C           2.2598   -6.8157    0.0000 C.2     1  UNL1        0.3575
     41 O           2.2598   -8.1208    0.0000 O.2     1  UNL1       -0.2461
     42 C           1.1359   -4.8701    0.0000 C.3     1  UNL1        0.1212
     43 C           8.2779   -8.7009    0.0000 C.3     1  UNL1        0.0375
     44 O           1.1359   -6.1752    0.0000 O.3     1  UNL1       -0.4419
     45 C           0.0000   -6.8157    0.0000 C.3     1  UNL1        0.2557
     46 H           9.7402   -4.6526    0.0000 H       1  UNL1        0.0348
     47 H           7.5649   -4.6888    0.0000 H       1  UNL1        0.0345
     48 H           4.1450   -5.4622    0.0000 H       1  UNL1        0.0363
@<TRIPOS>BOND
     1     1     2    1
     2     1    16    1
     3     2     3    1
     4     2    20    1
     5     3    15    1
     6     3     4    1
     7     3    25    1
     8     4     5    1
     9     4    17    1
    10     4    46    1
    11     5    13    1
    12     5     6    1
    13     5     7    1
    14     7     6    1
    15     7     8    1
    16     8    18    1
    17     8     9    1
    18     9    10    1
    19     9    26    1
    20    10    11    1
    21    10    30    1
    22    10    29    1
    23    11    12    1
    24    11    31    1
    25    11    48    1
    26    12    13    1
    27    12    18    1
    28    12    35    1
    29    13    14    1
    30    13    47    1
    31    14    15    1
    32    16    17    1
    33    16    36    2
    34    18    19    2
    35    20    24   ar
    36    20    21   ar
    37    21    22   ar
    38    22    23   ar
    39    23    24   ar
    40    26    27    1
    41    27    28    2
    42    27    37    1
    43    31    32    1
    44    31    40    1
    45    32    33    1
    46    33    34    2
    47    33    42    1
    48    37    38    2
    49    37    43    1
    50    38    39    1
    51    40    44    1
    52    40    41    2
    53    44    45    1
