@<TRIPOS>MOLECULE
IMPHY001838
 38 39 0 0 0
SMALL
GASTEIGER

@<TRIPOS>ATOM
      1 O           4.2690   -0.9050    0.0000 O.3     1  UNL1       -0.3313
      2 O           6.0010   -0.9050    0.0000 O.3     1  UNL1       -0.4608
      3 O           4.2690   -3.9050    0.0000 O.3     1  UNL1       -0.3864
      4 O           2.5369   -2.9050    0.0000 O.3     1  UNL1       -0.3865
      5 O           6.0010   -2.9050    0.0000 O.3     1  UNL1       -0.3829
      6 O           2.5369    0.0950    0.0000 O.3     1  UNL1       -0.3924
      7 O           6.8671    3.5950    0.0000 O.3     1  UNL1       -0.3904
      8 C           4.2690   -2.9050    0.0000 C.3     1  UNL1        0.1152
      9 C           3.4030   -2.4050    0.0000 C.3     1  UNL1        0.1120
     10 C           5.1350   -2.4050    0.0000 C.3     1  UNL1        0.1454
     11 C           3.4030   -1.4050    0.0000 C.3     1  UNL1        0.1140
     12 C           5.1350   -1.4050    0.0000 C.3     1  UNL1        0.2308
     13 C           2.5369   -0.9050    0.0000 C.3     1  UNL1        0.0731
     14 C           6.0010    0.0950    0.0000 C.ar    1  UNL1        0.1240
     15 C           6.8671    0.5950    0.0000 C.ar    1  UNL1       -0.0195
     16 C           5.1350    0.5950    0.0000 C.ar    1  UNL1       -0.0195
     17 C           6.0010    2.0950    0.0000 C.ar    1  UNL1       -0.0220
     18 C           6.8671    1.5950    0.0000 C.ar    1  UNL1       -0.0529
     19 C           5.1350    1.5950    0.0000 C.ar    1  UNL1       -0.0529
     20 C           6.0010    3.0950    0.0000 C.3     1  UNL1        0.0692
     21 H           4.8059   -3.2150    0.0000 H       1  UNL1        0.0648
     22 H           3.4030   -3.0250    0.0000 H       1  UNL1        0.0647
     23 H           5.6720   -2.0950    0.0000 H       1  UNL1        0.0683
     24 H           3.4030   -0.7850    0.0000 H       1  UNL1        0.0647
     25 H           5.1350   -0.7850    0.0000 H       1  UNL1        0.1084
     26 H           1.9264   -0.7973    0.0000 H       1  UNL1        0.0584
     27 H           2.3249   -1.4876    0.0000 H       1  UNL1        0.0584
     28 H           3.7320   -4.2150    0.0000 H       1  UNL1        0.2100
     29 H           2.0000   -2.5950    0.0000 H       1  UNL1        0.2100
     30 H           6.5380   -2.5950    0.0000 H       1  UNL1        0.2102
     31 H           2.0000    0.4050    0.0000 H       1  UNL1        0.2095
     32 H           7.4040    0.2850    0.0000 H       1  UNL1        0.0654
     33 H           4.5981    0.2850    0.0000 H       1  UNL1        0.0654
     34 H           7.4040    1.9050    0.0000 H       1  UNL1        0.0622
     35 H           4.5981    1.9050    0.0000 H       1  UNL1        0.0622
     36 H           5.7890    3.6776    0.0000 H       1  UNL1        0.0607
     37 H           5.3905    2.9873    0.0000 H       1  UNL1        0.0607
     38 H           6.8671    4.2150    0.0000 H       1  UNL1        0.2098
@<TRIPOS>BOND
     1     1    11    1
     2     1    12    1
     3    12     2    1
     4     2    14    1
     5     8     3    1
     6     3    28    1
     7     9     4    1
     8     4    29    1
     9    10     5    1
    10     5    30    1
    11     6    13    1
    12     6    31    1
    13     7    20    1
    14     7    38    1
    15     8     9    1
    16     8    10    1
    17     8    21    1
    18     9    11    1
    19     9    22    1
    20    10    12    1
    21    10    23    1
    22    11    13    1
    23    11    24    1
    24    12    25    1
    25    13    26    1
    26    13    27    1
    27    14    15   ar
    28    14    16   ar
    29    15    18   ar
    30    15    32    1
    31    16    19   ar
    32    16    33    1
    33    17    18   ar
    34    17    19   ar
    35    17    20    1
    36    18    34    1
    37    19    35    1
    38    20    36    1
    39    20    37    1
