@<TRIPOS>MOLECULE
IMPHY013638
 43 46 0 0 0
SMALL
GASTEIGER

@<TRIPOS>ATOM
      1 O           6.1709   -1.2702    0.0000 O.3     1  UNL1       -0.3761
      2 O           4.6660    2.4861    0.0000 O.2     1  UNL1       -0.2669
      3 N           5.5321    0.9861    0.0000 N.ar    1  UNL1       -0.2935
      4 N           4.6660   -0.5139    0.0000 N.ar    1  UNL1       -0.2302
      5 N           8.3040    0.4980    0.0000 N.pl3   1  UNL1       -0.3357
      6 C           6.4783   -0.3186    0.0000 C.3     1  UNL1        0.1515
      7 C           7.0619    0.4861    0.0000 C.3     1  UNL1        0.0056
      8 C           6.4783    1.2908    0.0000 C.3     1  UNL1        0.0312
      9 C           5.5321   -0.0139    0.0000 C.ar    1  UNL1        0.1495
     10 C           7.2883   -0.9050    0.0000 C.ar    1  UNL1        0.0123
     11 C           4.6660    1.4861    0.0000 C.ar    1  UNL1        0.2619
     12 C           8.2012   -0.4967    0.0000 C.ar    1  UNL1        0.0356
     13 C           3.8000    0.9861    0.0000 C.ar    1  UNL1        0.0649
     14 C           7.1855   -1.8997    0.0000 C.ar    1  UNL1       -0.0537
     15 C           3.8000   -0.0139    0.0000 C.ar    1  UNL1        0.0783
     16 C           9.0112   -1.0831    0.0000 C.ar    1  UNL1       -0.0403
     17 C           7.9955   -2.4861    0.0000 C.ar    1  UNL1       -0.0613
     18 C           2.9061    1.5208    0.0000 C.ar    1  UNL1       -0.0474
     19 C           2.9061   -0.5486    0.0000 C.ar    1  UNL1       -0.0355
     20 C           8.9084   -2.0778    0.0000 C.ar    1  UNL1       -0.0600
     21 C           9.2168    0.9063    0.0000 C.3     1  UNL1        0.0004
     22 C           7.4939    1.0844    0.0000 C.3     1  UNL1        0.0004
     23 C           2.0000    1.0069    0.0000 C.ar    1  UNL1       -0.0609
     24 C           2.0000   -0.0347    0.0000 C.ar    1  UNL1       -0.0597
     25 H           7.5228    0.0714    0.0000 H       1  UNL1        0.0318
     26 H           7.5228    0.9008    0.0000 H       1  UNL1        0.0318
     27 H           7.0157    1.6001    0.0000 H       1  UNL1        0.0494
     28 H           6.2272    1.8577    0.0000 H       1  UNL1        0.0494
     29 H           5.5647   -1.4002    0.0000 H       1  UNL1        0.2112
     30 H           6.6195   -2.1529    0.0000 H       1  UNL1        0.0622
     31 H           9.5772   -0.8299    0.0000 H       1  UNL1        0.0636
     32 H           7.9318   -3.1028    0.0000 H       1  UNL1        0.0618
     33 H           2.9132    2.1407    0.0000 H       1  UNL1        0.0626
     34 H           2.9132   -1.1685    0.0000 H       1  UNL1        0.0639
     35 H           9.4106   -2.4413    0.0000 H       1  UNL1        0.0618
     36 H           9.4700    0.3404    0.0000 H       1  UNL1        0.0428
     37 H           9.7828    1.1595    0.0000 H       1  UNL1        0.0428
     38 H           8.9636    1.4723    0.0000 H       1  UNL1        0.0428
     39 H           7.8575    1.5866    0.0000 H       1  UNL1        0.0428
     40 H           6.9917    1.4480    0.0000 H       1  UNL1        0.0428
     41 H           7.1304    0.5822    0.0000 H       1  UNL1        0.0428
     42 H           1.4643    1.3190    0.0000 H       1  UNL1        0.0618
     43 H           1.4643   -0.3468    0.0000 H       1  UNL1        0.0618
@<TRIPOS>BOND
     1     6     1    1
     2     1    29    1
     3     2    11    2
     4     3     8    1
     5     3     9   ar
     6     3    11   ar
     7     4     9   ar
     8     4    15   ar
     9     5    12    1
    10     5    21    1
    11     5    22    1
    12     6     7    1
    13     6     9    1
    14     6    10    1
    15     7     8    1
    16     7    25    1
    17     7    26    1
    18     8    27    1
    19     8    28    1
    20    10    12   ar
    21    10    14   ar
    22    11    13   ar
    23    12    16   ar
    24    13    15   ar
    25    13    18   ar
    26    14    17   ar
    27    14    30    1
    28    15    19   ar
    29    16    20   ar
    30    16    31    1
    31    17    20   ar
    32    17    32    1
    33    18    23   ar
    34    18    33    1
    35    19    24   ar
    36    19    34    1
    37    20    35    1
    38    21    36    1
    39    21    37    1
    40    21    38    1
    41    22    39    1
    42    22    40    1
    43    22    41    1
    44    23    24   ar
    45    23    42    1
    46    24    43    1
