@<TRIPOS>MOLECULE
IMPHY014324
 43 46 0 0 0
SMALL
GASTEIGER

@<TRIPOS>ATOM
      1 O           8.9368    0.5425    0.0000 O.3     1  UNL1       -0.3689
      2 O           2.5836   -0.8047    0.0000 O.3     1  UNL1       -0.4487
      3 O           2.5836    0.8047    0.0000 O.3     1  UNL1       -0.4487
      4 O           6.1443   -2.0346    0.0000 O.2     1  UNL1       -0.2868
      5 O           6.1443    2.0346    0.0000 O.2     1  UNL1       -0.2867
      6 O           4.3958   -2.0000    0.0000 O.3     1  UNL1       -0.4906
      7 O           4.3958    2.0000    0.0000 O.3     1  UNL1       -0.4906
      8 C           7.0619   -0.5208    0.0000 C.2     1  UNL1        0.0117
      9 C           7.0619    0.5208    0.0000 C.2     1  UNL1        0.0351
     10 C           7.9930   -1.0777    0.0000 C.3     1  UNL1        0.0026
     11 C           7.9930    1.0777    0.0000 C.3     1  UNL1        0.0851
     12 C           8.9368   -0.5425    0.0000 C.3     1  UNL1        0.0608
     13 C           5.2619   -0.5000    0.0000 C.ar    1  UNL1        0.0817
     14 C           5.2619    0.5000    0.0000 C.ar    1  UNL1        0.0818
     15 C           6.1558   -1.0347    0.0000 C.2     1  UNL1        0.1942
     16 C           6.1558    1.0347    0.0000 C.2     1  UNL1        0.1965
     17 C           7.9815    2.0777    0.0000 C.3     1  UNL1       -0.0344
     18 C           9.8009   -1.0458    0.0000 C.3     1  UNL1       -0.0384
     19 C           4.3958   -1.0000    0.0000 C.ar    1  UNL1        0.1770
     20 C           4.3958    1.0000    0.0000 C.ar    1  UNL1        0.1770
     21 C           3.5298   -0.5000    0.0000 C.ar    1  UNL1        0.2119
     22 C           3.5298    0.5000    0.0000 C.ar    1  UNL1        0.2119
     23 C           2.0000    0.0000    0.0000 C.3     1  UNL1        0.2336
     24 C           3.5298   -2.5000    0.0000 C.3     1  UNL1        0.0790
     25 C           3.5298    2.5000    0.0000 C.3     1  UNL1        0.0790
     26 H           7.5884   -1.5475    0.0000 H       1  UNL1        0.0339
     27 H           8.3867   -1.5568    0.0000 H       1  UNL1        0.0339
     28 H           8.5270    1.3929    0.0000 H       1  UNL1        0.0645
     29 H           9.4744   -0.2335    0.0000 H       1  UNL1        0.0597
     30 H           8.6014    2.0848    0.0000 H       1  UNL1        0.0258
     31 H           7.9743    2.6976    0.0000 H       1  UNL1        0.0258
     32 H           7.3615    2.0705    0.0000 H       1  UNL1        0.0258
     33 H           9.4889   -1.5816    0.0000 H       1  UNL1        0.0255
     34 H          10.3367   -1.3579    0.0000 H       1  UNL1        0.0255
     35 H          10.1130   -0.5101    0.0000 H       1  UNL1        0.0255
     36 H           1.5391    0.4147    0.0000 H       1  UNL1        0.1166
     37 H           1.5391   -0.4147    0.0000 H       1  UNL1        0.1166
     38 H           3.2198   -1.9631    0.0000 H       1  UNL1        0.0660
     39 H           2.9929   -2.8100    0.0000 H       1  UNL1        0.0660
     40 H           3.8398   -3.0369    0.0000 H       1  UNL1        0.0660
     41 H           3.8398    3.0369    0.0000 H       1  UNL1        0.0660
     42 H           2.9929    2.8100    0.0000 H       1  UNL1        0.0660
     43 H           3.2198    1.9631    0.0000 H       1  UNL1        0.0660
@<TRIPOS>BOND
     1     1    11    1
     2     1    12    1
     3     2    21    1
     4     2    23    1
     5     3    22    1
     6     3    23    1
     7     4    15    2
     8     5    16    2
     9     6    19    1
    10     6    24    1
    11     7    20    1
    12     7    25    1
    13     8     9    2
    14     8    10    1
    15     8    15    1
    16     9    11    1
    17     9    16    1
    18    10    12    1
    19    10    26    1
    20    10    27    1
    21    11    17    1
    22    11    28    1
    23    12    18    1
    24    12    29    1
    25    13    14   ar
    26    13    15    1
    27    13    19   ar
    28    14    16    1
    29    14    20   ar
    30    17    30    1
    31    17    31    1
    32    17    32    1
    33    18    33    1
    34    18    34    1
    35    18    35    1
    36    19    21   ar
    37    20    22   ar
    38    21    22   ar
    39    23    36    1
    40    23    37    1
    41    24    38    1
    42    24    39    1
    43    24    40    1
    44    25    41    1
    45    25    42    1
    46    25    43    1
