@<TRIPOS>MOLECULE
IMPHY007811
 48 49 0 0 0
SMALL
GASTEIGER

@<TRIPOS>ATOM
      1 O           5.5525   -0.3178    0.0000 O.3     1  UNL1       -0.4581
      2 O           4.0574   -0.1370    0.0000 O.3     1  UNL1       -0.3752
      3 O           3.7301    2.4884    0.0000 O.3     1  UNL1       -0.3886
      4 O           5.9126    1.3764    0.0000 O.2     1  UNL1       -0.2475
      5 N           7.7907   -2.7858    0.0000 N.3     1  UNL1       -0.2920
      6 C           7.7907   -1.7858    0.0000 C.3     1  UNL1        0.0352
      7 C           8.7369   -1.4811    0.0000 C.3     1  UNL1       -0.0322
      8 C           8.7369   -3.0906    0.0000 C.3     1  UNL1       -0.0002
      9 C           9.3205   -2.2858    0.0000 C.3     1  UNL1       -0.0385
     10 C           6.8396   -1.4768    0.0000 C.2     1  UNL1       -0.0183
     11 C           6.8396   -3.0948    0.0000 C.3     1  UNL1        0.0181
     12 C           6.2519   -2.2858    0.0000 C.2     1  UNL1       -0.0661
     13 C           6.5306   -0.5258    0.0000 C.3     1  UNL1        0.1152
     14 C           4.2653    0.8411    0.0000 C.3     1  UNL1        0.1903
     15 C           3.2872    1.0490    0.0000 C.3     1  UNL1       -0.0022
     16 C           4.4732    1.8193    0.0000 C.3     1  UNL1        0.0918
     17 C           5.2435    0.6332    0.0000 C.2     1  UNL1        0.3423
     18 C           2.9782    2.0001    0.0000 C.3     1  UNL1       -0.0501
     19 C           2.6180    0.3059    0.0000 C.3     1  UNL1       -0.0592
     20 C           5.4243    2.1283    0.0000 C.3     1  UNL1       -0.0357
     21 C           2.0000    2.2080    0.0000 C.3     1  UNL1       -0.0649
     22 H           7.7918   -0.9358    0.0000 H       1  UNL1        0.0510
     23 H           9.2743   -1.1719    0.0000 H       1  UNL1        0.0284
     24 H           8.4859   -0.9142    0.0000 H       1  UNL1        0.0284
     25 H           8.4859   -3.6575    0.0000 H       1  UNL1        0.0427
     26 H           9.2743   -3.3998    0.0000 H       1  UNL1        0.0427
     27 H           9.7814   -2.7006    0.0000 H       1  UNL1        0.0278
     28 H           9.7814   -1.8711    0.0000 H       1  UNL1        0.0278
     29 H           6.3027   -3.4048    0.0000 H       1  UNL1        0.0470
     30 H           7.0918   -3.6612    0.0000 H       1  UNL1        0.0470
     31 H           5.6319   -2.2858    0.0000 H       1  UNL1        0.0586
     32 H           7.1446   -0.4395    0.0000 H       1  UNL1        0.0746
     33 H           6.5523    0.0939    0.0000 H       1  UNL1        0.0746
     34 H           3.5498    0.2406    0.0000 H       1  UNL1        0.0332
     35 H           3.6648    1.5566    0.0000 H       1  UNL1        0.0625
     36 H           3.5921    2.0864    0.0000 H       1  UNL1        0.0266
     37 H           2.9998    2.6197    0.0000 H       1  UNL1        0.0266
     38 H           2.1573    0.7207    0.0000 H       1  UNL1        0.0233
     39 H           2.2032   -0.1549    0.0000 H       1  UNL1        0.0233
     40 H           3.0788   -0.1090    0.0000 H       1  UNL1        0.0233
     41 H           5.6159    1.5386    0.0000 H       1  UNL1        0.0255
     42 H           6.0139    2.3199    0.0000 H       1  UNL1        0.0255
     43 H           5.2327    2.7179    0.0000 H       1  UNL1        0.0255
     44 H           3.4678   -0.3286    0.0000 H       1  UNL1        0.2110
     45 H           2.1289    2.8144    0.0000 H       1  UNL1        0.0230
     46 H           1.3936    2.3369    0.0000 H       1  UNL1        0.0230
     47 H           1.8711    1.6016    0.0000 H       1  UNL1        0.0230
     48 H           3.8590    3.0948    0.0000 H       1  UNL1        0.2099
@<TRIPOS>BOND
     1     1    13    1
     2     1    17    1
     3     2    14    1
     4     2    44    1
     5     3    16    1
     6     3    48    1
     7     4    17    2
     8     5     6    1
     9     5     8    1
    10     5    11    1
    11     6     7    1
    12     6    10    1
    13     6    22    1
    14     7     9    1
    15     7    23    1
    16     7    24    1
    17     8     9    1
    18     8    25    1
    19     8    26    1
    20     9    27    1
    21     9    28    1
    22    10    12    2
    23    10    13    1
    24    11    12    1
    25    11    29    1
    26    11    30    1
    27    12    31    1
    28    13    32    1
    29    13    33    1
    30    14    15    1
    31    14    16    1
    32    14    17    1
    33    15    18    1
    34    15    19    1
    35    15    34    1
    36    16    20    1
    37    16    35    1
    38    18    21    1
    39    18    36    1
    40    18    37    1
    41    19    38    1
    42    19    39    1
    43    19    40    1
    44    20    41    1
    45    20    42    1
    46    20    43    1
    47    21    45    1
    48    21    46    1
    49    21    47    1
