@<TRIPOS>MOLECULE
IMPHY015728
 59 58 0 0 0
SMALL
GASTEIGER

@<TRIPOS>ATOM
      1 F          18.0885   -0.7990    0.0000 F       1  UNL1       -0.1833
      2 F          17.0885    0.9330    0.0000 F       1  UNL1       -0.1833
      3 F          19.3205    1.0670    0.0000 F       1  UNL1       -0.1645
      4 F          17.9545    1.4330    0.0000 F       1  UNL1       -0.1645
      5 F          18.9545   -0.2990    0.0000 F       1  UNL1       -0.1645
      6 O          15.8564    0.0670    0.0000 O.3     1  UNL1       -0.4603
      7 O          16.7224   -1.4330    0.0000 O.2     1  UNL1       -0.2437
      8 C           8.9282    0.0670    0.0000 C.3     1  UNL1       -0.0531
      9 C           8.0622   -0.4330    0.0000 C.3     1  UNL1       -0.0531
     10 C           9.7942   -0.4330    0.0000 C.3     1  UNL1       -0.0531
     11 C           7.1962    0.0670    0.0000 C.3     1  UNL1       -0.0531
     12 C          10.6603    0.0670    0.0000 C.3     1  UNL1       -0.0531
     13 C           6.3301   -0.4330    0.0000 C.3     1  UNL1       -0.0531
     14 C          11.5263   -0.4330    0.0000 C.3     1  UNL1       -0.0531
     15 C           5.4641    0.0670    0.0000 C.3     1  UNL1       -0.0531
     16 C          12.3923    0.0670    0.0000 C.3     1  UNL1       -0.0530
     17 C           4.5981   -0.4330    0.0000 C.3     1  UNL1       -0.0531
     18 C          13.2583   -0.4330    0.0000 C.3     1  UNL1       -0.0500
     19 C           3.7320    0.0670    0.0000 C.3     1  UNL1       -0.0533
     20 C          14.1244    0.0670    0.0000 C.3     1  UNL1       -0.0185
     21 C           2.8660   -0.4330    0.0000 C.3     1  UNL1       -0.0559
     22 C          14.9904   -0.4330    0.0000 C.3     1  UNL1        0.0927
     23 C           2.0000    0.0670    0.0000 C.3     1  UNL1       -0.0653
     24 C          16.7224   -0.4330    0.0000 C.2     1  UNL1        0.3869
     25 C          17.5885    0.0670    0.0000 C.3     1  UNL1        0.4353
     26 C          18.4545    0.5670    0.0000 C.3     1  UNL1        0.4654
     27 H           9.3267    0.5419    0.0000 H       1  UNL1        0.0265
     28 H           8.5297    0.5419    0.0000 H       1  UNL1        0.0265
     29 H           7.6636   -0.9080    0.0000 H       1  UNL1        0.0265
     30 H           8.4607   -0.9080    0.0000 H       1  UNL1        0.0265
     31 H           9.3957   -0.9080    0.0000 H       1  UNL1        0.0265
     32 H          10.1928   -0.9080    0.0000 H       1  UNL1        0.0265
     33 H           7.5947    0.5419    0.0000 H       1  UNL1        0.0265
     34 H           6.7976    0.5419    0.0000 H       1  UNL1        0.0265
     35 H          11.0588    0.5419    0.0000 H       1  UNL1        0.0265
     36 H          10.2617    0.5419    0.0000 H       1  UNL1        0.0265
     37 H           5.9316   -0.9080    0.0000 H       1  UNL1        0.0265
     38 H           6.7287   -0.9080    0.0000 H       1  UNL1        0.0265
     39 H          11.1278   -0.9080    0.0000 H       1  UNL1        0.0265
     40 H          11.9248   -0.9080    0.0000 H       1  UNL1        0.0265
     41 H           5.8626    0.5419    0.0000 H       1  UNL1        0.0265
     42 H           5.0656    0.5419    0.0000 H       1  UNL1        0.0265
     43 H          12.7908    0.5419    0.0000 H       1  UNL1        0.0265
     44 H          11.9938    0.5419    0.0000 H       1  UNL1        0.0265
     45 H           4.1996   -0.9080    0.0000 H       1  UNL1        0.0265
     46 H           4.9966   -0.9080    0.0000 H       1  UNL1        0.0265
     47 H          12.8598   -0.9080    0.0000 H       1  UNL1        0.0266
     48 H          13.6569   -0.9080    0.0000 H       1  UNL1        0.0266
     49 H           4.1306    0.5419    0.0000 H       1  UNL1        0.0265
     50 H           3.3335    0.5419    0.0000 H       1  UNL1        0.0265
     51 H          14.5229    0.5419    0.0000 H       1  UNL1        0.0298
     52 H          13.7258    0.5419    0.0000 H       1  UNL1        0.0298
     53 H           2.4675   -0.9080    0.0000 H       1  UNL1        0.0263
     54 H           3.2646   -0.9080    0.0000 H       1  UNL1        0.0263
     55 H          14.5919   -0.9080    0.0000 H       1  UNL1        0.0697
     56 H          15.3889   -0.9080    0.0000 H       1  UNL1        0.0697
     57 H           2.3100    0.6039    0.0000 H       1  UNL1        0.0230
     58 H           1.4631    0.3770    0.0000 H       1  UNL1        0.0230
     59 H           1.6900   -0.4699    0.0000 H       1  UNL1        0.0230
@<TRIPOS>BOND
     1     1    25    1
     2     2    25    1
     3     3    26    1
     4     4    26    1
     5     5    26    1
     6     6    22    1
     7     6    24    1
     8     7    24    2
     9     8     9    1
    10     8    10    1
    11     8    27    1
    12     8    28    1
    13     9    11    1
    14     9    29    1
    15     9    30    1
    16    10    12    1
    17    10    31    1
    18    10    32    1
    19    11    13    1
    20    11    33    1
    21    11    34    1
    22    12    14    1
    23    12    35    1
    24    12    36    1
    25    13    15    1
    26    13    37    1
    27    13    38    1
    28    14    16    1
    29    14    39    1
    30    14    40    1
    31    15    17    1
    32    15    41    1
    33    15    42    1
    34    16    18    1
    35    16    43    1
    36    16    44    1
    37    17    19    1
    38    17    45    1
    39    17    46    1
    40    18    20    1
    41    18    47    1
    42    18    48    1
    43    19    21    1
    44    19    49    1
    45    19    50    1
    46    20    22    1
    47    20    51    1
    48    20    52    1
    49    21    23    1
    50    21    53    1
    51    21    54    1
    52    22    55    1
    53    22    56    1
    54    23    57    1
    55    23    58    1
    56    23    59    1
    57    24    25    1
    58    25    26    1
