@<TRIPOS>MOLECULE
IMPHY012755
 71 75 0 0 0
SMALL
GASTEIGER

@<TRIPOS>ATOM
      1 O           6.8671   -3.6796    0.0000 O.3     1  UNL1       -0.3366
      2 O           5.1350   -1.6796    0.0000 O.3     1  UNL1       -0.3313
      3 O           7.7331   -2.1796    0.0000 O.3     1  UNL1       -0.3431
      4 O           5.1350   -4.6796    0.0000 O.3     1  UNL1       -0.3863
      5 O           6.8671   -1.6796    0.0000 O.3     1  UNL1       -0.4606
      6 O           3.4030   -3.6796    0.0000 O.3     1  UNL1       -0.3865
      7 O           8.5991   -4.6796    0.0000 O.3     1  UNL1       -0.3841
      8 O          10.3312   -3.6796    0.0000 O.3     1  UNL1       -0.3864
      9 O          10.3312   -1.6796    0.0000 O.3     1  UNL1       -0.3866
     10 O           2.5369   -2.1796    0.0000 O.3     1  UNL1       -0.3924
     11 O           8.6230    1.3829    0.0000 O.2     1  UNL1       -0.4544
     12 O           5.1208    1.3996    0.0000 O.3     1  UNL1       -0.5058
     13 O           6.0308    2.8930    0.0000 O.2     1  UNL1       -0.2869
     14 O          12.0987    4.3696    0.0000 O.3     1  UNL1       -0.5068
     15 C           6.0010   -3.1796    0.0000 C.3     1  UNL1        0.1519
     16 C           5.1350   -3.6796    0.0000 C.3     1  UNL1        0.1155
     17 C           4.2690   -3.1796    0.0000 C.3     1  UNL1        0.1120
     18 C           7.7331   -3.1796    0.0000 C.3     1  UNL1        0.1885
     19 C           8.5991   -3.6796    0.0000 C.3     1  UNL1        0.1341
     20 C           6.0010   -2.1796    0.0000 C.3     1  UNL1        0.2312
     21 C           4.2690   -2.1796    0.0000 C.3     1  UNL1        0.1140
     22 C           9.4651   -3.1796    0.0000 C.3     1  UNL1        0.1140
     23 C           9.4651   -2.1796    0.0000 C.3     1  UNL1        0.1095
     24 C           8.5991   -1.6796    0.0000 C.3     1  UNL1        0.0873
     25 C           3.4030   -1.6796    0.0000 C.3     1  UNL1        0.0731
     26 C           8.5991   -0.6796    0.0000 C.3     1  UNL1       -0.0361
     27 C           6.8671   -0.6796    0.0000 C.ar    1  UNL1        0.1310
     28 C           7.7671   -0.1553    0.0000 C.ar    1  UNL1        0.0235
     29 C           5.9670   -0.1553    0.0000 C.ar    1  UNL1        0.0226
     30 C           7.7551    0.8863    0.0000 C.ar    1  UNL1        0.1462
     31 C           5.9790    0.8863    0.0000 C.ar    1  UNL1        0.1347
     32 C           6.8910    1.3896    0.0000 C.ar    1  UNL1        0.1055
     33 C           6.8948    2.3896    0.0000 C.ar    1  UNL1        0.1966
     34 C           8.6269    2.3829    0.0000 C.ar    1  UNL1        0.1392
     35 C           7.7628    2.8863    0.0000 C.ar    1  UNL1        0.0288
     36 C           9.4948    2.8796    0.0000 C.ar    1  UNL1        0.0176
     37 C           9.4987    3.8796    0.0000 C.ar    1  UNL1       -0.0476
     38 C          10.3589    2.3763    0.0000 C.ar    1  UNL1       -0.0476
     39 C          10.3666    4.3762    0.0000 C.ar    1  UNL1       -0.0195
     40 C          11.2269    2.8729    0.0000 C.ar    1  UNL1       -0.0195
     41 C          11.2307    3.8729    0.0000 C.ar    1  UNL1        0.1169
     42 H           6.0010   -3.7996    0.0000 H       1  UNL1        0.0687
     43 H           4.5981   -3.9896    0.0000 H       1  UNL1        0.0648
     44 H           4.2690   -3.7996    0.0000 H       1  UNL1        0.0647
     45 H           7.1962   -2.8696    0.0000 H       1  UNL1        0.0938
     46 H           8.0622   -3.9896    0.0000 H       1  UNL1        0.0671
     47 H           6.5380   -2.4896    0.0000 H       1  UNL1        0.1084
     48 H           4.2690   -1.5596    0.0000 H       1  UNL1        0.0647
     49 H           9.4651   -3.7996    0.0000 H       1  UNL1        0.0648
     50 H          10.0021   -2.4896    0.0000 H       1  UNL1        0.0646
     51 H           8.0622   -1.3696    0.0000 H       1  UNL1        0.0621
     52 H           3.8015   -1.2046    0.0000 H       1  UNL1        0.0584
     53 H           3.0044   -1.2046    0.0000 H       1  UNL1        0.0584
     54 H           9.2191   -0.6796    0.0000 H       1  UNL1        0.0255
     55 H           8.5991   -0.0596    0.0000 H       1  UNL1        0.0255
     56 H           7.9791   -0.6796    0.0000 H       1  UNL1        0.0255
     57 H           4.5981   -4.9896    0.0000 H       1  UNL1        0.2100
     58 H           3.4030   -4.2996    0.0000 H       1  UNL1        0.2100
     59 H           9.1360   -4.9896    0.0000 H       1  UNL1        0.2101
     60 H          10.8681   -3.3696    0.0000 H       1  UNL1        0.2100
     61 H          10.8681   -1.9896    0.0000 H       1  UNL1        0.2100
     62 H           2.0000   -1.8696    0.0000 H       1  UNL1        0.2095
     63 H           8.3064   -0.4611    0.0000 H       1  UNL1        0.0691
     64 H           5.4277   -0.4611    0.0000 H       1  UNL1        0.0691
     65 H           7.7652    3.5063    0.0000 H       1  UNL1        0.0693
     66 H           4.5792    1.0979    0.0000 H       1  UNL1        0.2922
     67 H           8.9630    4.1916    0.0000 H       1  UNL1        0.0626
     68 H          10.3565    1.7563    0.0000 H       1  UNL1        0.0626
     69 H          10.3690    4.9962    0.0000 H       1  UNL1        0.0654
     70 H          11.7626    2.5608    0.0000 H       1  UNL1        0.0654
     71 H          12.1011    4.9896    0.0000 H       1  UNL1        0.2921
@<TRIPOS>BOND
     1    15     1    1
     2    18     1    1
     3     2    20    1
     4     2    21    1
     5     3    18    1
     6     3    24    1
     7    16     4    1
     8     4    57    1
     9    20     5    1
    10     5    27    1
    11    17     6    1
    12     6    58    1
    13    19     7    1
    14     7    59    1
    15    22     8    1
    16     8    60    1
    17    23     9    1
    18     9    61    1
    19    10    25    1
    20    10    62    1
    21    11    30   ar
    22    11    34   ar
    23    12    31    1
    24    12    66    1
    25    13    33    2
    26    14    41    1
    27    14    71    1
    28    15    16    1
    29    15    20    1
    30    15    42    1
    31    16    17    1
    32    16    43    1
    33    17    21    1
    34    17    44    1
    35    18    19    1
    36    18    45    1
    37    19    22    1
    38    19    46    1
    39    20    47    1
    40    21    25    1
    41    21    48    1
    42    22    23    1
    43    22    49    1
    44    23    24    1
    45    23    50    1
    46    24    26    1
    47    24    51    1
    48    25    52    1
    49    25    53    1
    50    26    54    1
    51    26    55    1
    52    26    56    1
    53    27    28   ar
    54    27    29   ar
    55    28    30   ar
    56    28    63    1
    57    29    31   ar
    58    29    64    1
    59    30    32   ar
    60    31    32   ar
    61    32    33   ar
    62    33    35   ar
    63    34    35   ar
    64    34    36    1
    65    35    65    1
    66    36    37   ar
    67    36    38   ar
    68    37    39   ar
    69    37    67    1
    70    38    40   ar
    71    38    68    1
    72    39    41   ar
    73    39    69    1
    74    40    41   ar
    75    40    70    1
