@<TRIPOS>MOLECULE
IMPHY014852
 26 27 0 0 0
SMALL
GASTEIGER

@<TRIPOS>ATOM
      1 C           3.7147   -0.2226    0.0000 C.3     1  UNL1       -0.0316
      2 C           5.1137   -0.7314    0.0000 C.3     1  UNL1       -0.0110
      3 C           3.9735    0.7433    0.0000 C.3     1  UNL1       -0.0193
      4 C           3.2369    1.7259    0.0000 C.3     1  UNL1       -0.0429
      5 C           2.3420   -0.8146    0.0000 C.3     1  UNL1       -0.0489
      6 C           2.0000    0.1251    0.0000 C.3     1  UNL1       -0.0462
      7 C           5.3725    0.2345    0.0000 C.2     1  UNL1       -0.0676
      8 C           6.0272   -1.1382    0.0000 C.3     1  UNL1       -0.0558
      9 C           5.0091   -1.7259    0.0000 C.3     1  UNL1       -0.0558
     10 C           6.2385    0.7345    0.0000 C.2     1  UNL1       -0.0987
     11 H           3.7328   -0.8423    0.0000 H       1  UNL1        0.0309
     12 H           3.9595    0.1235    0.0000 H       1  UNL1        0.0346
     13 H           3.5547    2.2583    0.0000 H       1  UNL1        0.0274
     14 H           2.6238    1.8179    0.0000 H       1  UNL1        0.0274
     15 H           1.7636   -1.0379    0.0000 H       1  UNL1        0.0268
     16 H           2.5765   -1.3886    0.0000 H       1  UNL1        0.0268
     17 H           1.8057    0.7138    0.0000 H       1  UNL1        0.0271
     18 H           1.4142   -0.0781    0.0000 H       1  UNL1        0.0271
     19 H           5.7750   -1.7046    0.0000 H       1  UNL1        0.0238
     20 H           6.5936   -1.3903    0.0000 H       1  UNL1        0.0238
     21 H           6.2794   -0.5718    0.0000 H       1  UNL1        0.0238
     22 H           4.3925   -1.6611    0.0000 H       1  UNL1        0.0238
     23 H           4.9443   -2.3425    0.0000 H       1  UNL1        0.0238
     24 H           5.6257   -1.7908    0.0000 H       1  UNL1        0.0238
     25 H           6.7754    0.4245    0.0000 H       1  UNL1        0.0535
     26 H           6.2385    1.3545    0.0000 H       1  UNL1        0.0535
@<TRIPOS>BOND
     1     1     2    1
     2     1     4    1
     3     1     5    1
     4     1    11    1
     5     2     7    1
     6     2     8    1
     7     2     9    1
     8     3     4    1
     9     3     6    1
    10     3     7    1
    11     3    12    1
    12     4    13    1
    13     4    14    1
    14     5     6    1
    15     5    15    1
    16     5    16    1
    17     6    17    1
    18     6    18    1
    19     7    10    2
    20     8    19    1
    21     8    20    1
    22     8    21    1
    23     9    22    1
    24     9    23    1
    25     9    24    1
    26    10    25    1
    27    10    26    1
