@<TRIPOS>MOLECULE
IMPHY013053
 90 96 0 0 0
SMALL
GASTEIGER

@<TRIPOS>ATOM
      1 O           7.7331   -3.9635    0.0000 O.3     1  UNL1       -0.3405
      2 O          12.3658    1.0284    0.0000 O.3     1  UNL1       -0.4833
      3 O           9.4651   -3.9635    0.0000 O.3     1  UNL1       -0.3443
      4 O           6.0010   -2.9635    0.0000 O.3     1  UNL1       -0.3461
      5 O           9.4929   -0.8556    0.0000 O.3     1  UNL1       -0.4838
      6 O           6.0010   -5.9635    0.0000 O.3     1  UNL1       -0.3865
      7 O           7.7331   -6.9635    0.0000 O.3     1  UNL1       -0.3864
      8 O          14.4485    2.7604    0.0000 O.3     1  UNL1       -0.4879
      9 O           9.4651   -5.9635    0.0000 O.3     1  UNL1       -0.3841
     10 O           4.2690   -2.9635    0.0000 O.3     1  UNL1       -0.3461
     11 O           6.0010   -0.9635    0.0000 O.3     1  UNL1       -0.3841
     12 O           4.2690    0.0365    0.0000 O.3     1  UNL1       -0.3864
     13 O          10.8859    3.6380    0.0000 O.2     1  UNL1       -0.2912
     14 O           2.5369   -0.9635    0.0000 O.3     1  UNL1       -0.3869
     15 O          12.3680    6.4055    0.0000 O.3     1  UNL1       -0.4914
     16 O          14.4596    6.4055    0.0000 O.3     1  UNL1       -0.4913
     17 C           6.8671   -4.4635    0.0000 C.3     1  UNL1        0.1134
     18 C           6.8671   -5.4635    0.0000 C.3     1  UNL1        0.1119
     19 C           7.7331   -5.9635    0.0000 C.3     1  UNL1        0.1141
     20 C           8.5991   -5.4635    0.0000 C.3     1  UNL1        0.1341
     21 C           8.5991   -4.4635    0.0000 C.3     1  UNL1        0.1883
     22 C          12.3791    2.7604    0.0000 C.3     1  UNL1        0.0908
     23 C          12.8725    1.8906    0.0000 C.3     1  UNL1        0.1478
     24 C           6.0010   -3.9635    0.0000 C.3     1  UNL1        0.0796
     25 C          10.8520    0.1301    0.0000 C.ar    1  UNL1        0.0404
     26 C          10.3312   -1.4635    0.0000 C.3     1  UNL1        0.1273
     27 C          11.1694   -0.8556    0.0000 C.3     1  UNL1        0.0205
     28 C          11.3658    1.0361    0.0000 C.ar    1  UNL1        0.1383
     29 C          10.8725    1.9060    0.0000 C.ar    1  UNL1        0.0603
     30 C          11.3792    2.7681    0.0000 C.2     1  UNL1        0.1778
     31 C          12.8930    3.6665    0.0000 C.ar    1  UNL1        0.0122
     32 C          13.9138    1.8665    0.0000 C.3     1  UNL1        0.1273
     33 C           5.1350   -2.4635    0.0000 C.3     1  UNL1        0.1876
     34 C           5.1350   -1.4635    0.0000 C.3     1  UNL1        0.1341
     35 C           9.8104    0.1301    0.0000 C.ar    1  UNL1        0.1282
     36 C           4.2690   -0.9635    0.0000 C.3     1  UNL1        0.1137
     37 C          10.3312   -2.4635    0.0000 C.2     1  UNL1       -0.0109
     38 C           9.4651   -2.9635    0.0000 C.3     1  UNL1        0.0750
     39 C           3.4030   -1.4635    0.0000 C.3     1  UNL1        0.1069
     40 C          13.9346    3.6665    0.0000 C.ar    1  UNL1        0.1283
     41 C           9.8312    1.9301    0.0000 C.ar    1  UNL1       -0.0442
     42 C           3.4030   -2.4635    0.0000 C.3     1  UNL1        0.0792
     43 C           9.2965    1.0361    0.0000 C.ar    1  UNL1       -0.0187
     44 C          12.3361    4.5976    0.0000 C.ar    1  UNL1       -0.0088
     45 C          14.4915    4.5976    0.0000 C.ar    1  UNL1        0.0257
     46 C          12.8713    5.5414    0.0000 C.ar    1  UNL1        0.1620
     47 C          11.1972   -2.9635    0.0000 C.2     1  UNL1       -0.0938
     48 C          13.9563    5.5414    0.0000 C.ar    1  UNL1        0.1650
     49 C          12.8646    7.2735    0.0000 C.3     1  UNL1        0.0790
     50 C          15.4596    6.4017    0.0000 C.3     1  UNL1        0.0790
     51 H           6.8671   -3.8435    0.0000 H       1  UNL1        0.0647
     52 H           6.8671   -6.0835    0.0000 H       1  UNL1        0.0647
     53 H           7.1962   -6.2735    0.0000 H       1  UNL1        0.0648
     54 H           8.5991   -6.0835    0.0000 H       1  UNL1        0.0671
     55 H           8.5991   -3.8435    0.0000 H       1  UNL1        0.0938
     56 H          11.9541    3.4965    0.0000 H       1  UNL1        0.0468
     57 H          13.2861    1.1480    0.0000 H       1  UNL1        0.0778
     58 H           5.3905   -3.8558    0.0000 H       1  UNL1        0.0587
     59 H           5.7890   -4.5461    0.0000 H       1  UNL1        0.0587
     60 H           9.7789   -1.7452    0.0000 H       1  UNL1        0.0785
     61 H          11.4786   -1.3929    0.0000 H       1  UNL1        0.0355
     62 H          11.7363   -0.6045    0.0000 H       1  UNL1        0.0355
     63 H          13.7936    1.2582    0.0000 H       1  UNL1        0.0734
     64 H          14.4925    1.6440    0.0000 H       1  UNL1        0.0734
     65 H           5.6720   -2.1535    0.0000 H       1  UNL1        0.0937
     66 H           5.1350   -0.8435    0.0000 H       1  UNL1        0.0671
     67 H           3.7320   -0.6535    0.0000 H       1  UNL1        0.0647
     68 H           9.2531   -2.3808    0.0000 H       1  UNL1        0.0609
     69 H           8.8546   -3.0711    0.0000 H       1  UNL1        0.0609
     70 H           3.4030   -0.8435    0.0000 H       1  UNL1        0.0643
     71 H           9.5316    2.4729    0.0000 H       1  UNL1        0.0627
     72 H           2.7924   -2.3558    0.0000 H       1  UNL1        0.0587
     73 H           3.1909   -3.0461    0.0000 H       1  UNL1        0.0587
     74 H           8.6765    1.0433    0.0000 H       1  UNL1        0.0654
     75 H           5.4641   -5.6535    0.0000 H       1  UNL1        0.2100
     76 H           7.1962   -7.2735    0.0000 H       1  UNL1        0.2100
     77 H          10.0021   -5.6535    0.0000 H       1  UNL1        0.2101
     78 H          11.7161    4.5905    0.0000 H       1  UNL1        0.0659
     79 H          15.1115    4.5905    0.0000 H       1  UNL1        0.0692
     80 H          11.1972   -3.5835    0.0000 H       1  UNL1        0.0536
     81 H          11.7341   -2.6535    0.0000 H       1  UNL1        0.0536
     82 H           6.0010   -0.3435    0.0000 H       1  UNL1        0.2101
     83 H           3.7320    0.3465    0.0000 H       1  UNL1        0.2100
     84 H           2.0000   -1.2735    0.0000 H       1  UNL1        0.2100
     85 H          13.4028    6.9655    0.0000 H       1  UNL1        0.0660
     86 H          13.1726    7.8116    0.0000 H       1  UNL1        0.0660
     87 H          12.3265    7.5814    0.0000 H       1  UNL1        0.0660
     88 H          15.4572    5.7817    0.0000 H       1  UNL1        0.0660
     89 H          16.0796    6.3993    0.0000 H       1  UNL1        0.0660
     90 H          15.4620    7.0217    0.0000 H       1  UNL1        0.0660
@<TRIPOS>BOND
     1     1    17    1
     2     1    21    1
     3     2    23    1
     4     2    28    1
     5    21     3    1
     6     3    38    1
     7     4    24    1
     8    33     4    1
     9     5    26    1
    10     5    35    1
    11    18     6    1
    12     6    75    1
    13    19     7    1
    14     7    76    1
    15     8    32    1
    16     8    40    1
    17    20     9    1
    18     9    77    1
    19    10    33    1
    20    10    42    1
    21    34    11    1
    22    11    82    1
    23    36    12    1
    24    12    83    1
    25    13    30    2
    26    39    14    1
    27    14    84    1
    28    15    46    1
    29    15    49    1
    30    16    48    1
    31    16    50    1
    32    17    18    1
    33    17    24    1
    34    17    51    1
    35    18    19    1
    36    18    52    1
    37    19    20    1
    38    19    53    1
    39    20    21    1
    40    20    54    1
    41    21    55    1
    42    22    23    1
    43    22    30    1
    44    22    31    1
    45    22    56    1
    46    23    32    1
    47    23    57    1
    48    24    58    1
    49    24    59    1
    50    25    27    1
    51    25    28   ar
    52    25    35   ar
    53    26    27    1
    54    26    37    1
    55    26    60    1
    56    27    61    1
    57    27    62    1
    58    28    29   ar
    59    29    30    1
    60    29    41   ar
    61    31    40   ar
    62    31    44   ar
    63    32    63    1
    64    32    64    1
    65    33    34    1
    66    33    65    1
    67    34    36    1
    68    34    66    1
    69    35    43   ar
    70    36    39    1
    71    36    67    1
    72    37    38    1
    73    37    47    2
    74    38    68    1
    75    38    69    1
    76    39    42    1
    77    39    70    1
    78    40    45   ar
    79    41    43   ar
    80    41    71    1
    81    42    72    1
    82    42    73    1
    83    43    74    1
    84    44    46   ar
    85    44    78    1
    86    45    48   ar
    87    45    79    1
    88    46    48   ar
    89    47    80    1
    90    47    81    1
    91    49    85    1
    92    49    86    1
    93    49    87    1
    94    50    88    1
    95    50    89    1
    96    50    90    1
