@<TRIPOS>MOLECULE
IMPHY013759
 11 10 0 0 0
SMALL
GASTEIGER

@<TRIPOS>ATOM
      1 O           4.5981    0.2500    0.0000 O.3     1  UNL1       -0.3875
      2 O           2.8660   -0.7500    0.0000 O.2     1  UNL1       -0.2953
      3 C           3.7320    0.7500    0.0000 C.3     1  UNL1        0.1020
      4 C           2.8660    0.2500    0.0000 C.2     1  UNL1        0.1554
      5 C           2.0000    0.7500    0.0000 C.3     1  UNL1       -0.0038
      6 H           4.1306    1.2250    0.0000 H       1  UNL1        0.0636
      7 H           3.3335    1.2250    0.0000 H       1  UNL1        0.0636
      8 H           2.3100    1.2869    0.0000 H       1  UNL1        0.0307
      9 H           1.4631    1.0600    0.0000 H       1  UNL1        0.0307
     10 H           1.6900    0.2131    0.0000 H       1  UNL1        0.0307
     11 H           5.1350    0.5600    0.0000 H       1  UNL1        0.2100
@<TRIPOS>BOND
     1     1     3    1
     2     1    11    1
     3     2     4    2
     4     3     4    1
     5     3     6    1
     6     3     7    1
     7     4     5    1
     8     5     8    1
     9     5     9    1
    10     5    10    1
