@<TRIPOS>MOLECULE
IMPHY006670
 24 24 0 0 0
SMALL
GASTEIGER

@<TRIPOS>ATOM
      1 O           2.5369   -2.3450    0.0000 O.3     1  UNL1       -0.5033
      2 O           4.2690   -3.3450    0.0000 O.3     1  UNL1       -0.5033
      3 O           6.0010    2.6550    0.0000 O.3     1  UNL1       -0.4649
      4 O           4.2690    2.6550    0.0000 O.2     1  UNL1       -0.2456
      5 C           4.2690   -0.3450    0.0000 C.ar    1  UNL1       -0.0211
      6 C           3.4030   -0.8450    0.0000 C.ar    1  UNL1       -0.0094
      7 C           5.1350   -0.8450    0.0000 C.ar    1  UNL1       -0.0509
      8 C           3.4030   -1.8450    0.0000 C.ar    1  UNL1        0.1588
      9 C           4.2690   -2.3450    0.0000 C.ar    1  UNL1        0.1582
     10 C           5.1350   -1.8450    0.0000 C.ar    1  UNL1       -0.0160
     11 C           4.2690    0.6550    0.0000 C.2     1  UNL1       -0.0477
     12 C           5.1350    1.1550    0.0000 C.2     1  UNL1        0.0230
     13 C           5.1350    2.1550    0.0000 C.2     1  UNL1        0.3317
     14 C           6.0010    3.6550    0.0000 C.3     1  UNL1        0.0820
     15 H           2.8660   -0.5350    0.0000 H       1  UNL1        0.0661
     16 H           5.6720   -0.5350    0.0000 H       1  UNL1        0.0625
     17 H           5.6720   -2.1550    0.0000 H       1  UNL1        0.0655
     18 H           3.7320    0.9650    0.0000 H       1  UNL1        0.0626
     19 H           5.6720    0.8450    0.0000 H       1  UNL1        0.0689
     20 H           2.0000   -2.0350    0.0000 H       1  UNL1        0.2923
     21 H           4.8059   -3.6550    0.0000 H       1  UNL1        0.2923
     22 H           6.6210    3.6550    0.0000 H       1  UNL1        0.0661
     23 H           6.0010    4.2750    0.0000 H       1  UNL1        0.0661
     24 H           5.3810    3.6550    0.0000 H       1  UNL1        0.0661
@<TRIPOS>BOND
     1     1     8    1
     2     1    20    1
     3     2     9    1
     4     2    21    1
     5     3    13    1
     6     3    14    1
     7     4    13    2
     8     5     6   ar
     9     5     7   ar
    10     5    11    1
    11     6     8   ar
    12     6    15    1
    13     7    10   ar
    14     7    16    1
    15     8     9   ar
    16     9    10   ar
    17    10    17    1
    18    11    12    2
    19    11    18    1
    20    12    13    1
    21    12    19    1
    22    14    22    1
    23    14    23    1
    24    14    24    1
