@<TRIPOS>MOLECULE
IMPHY010299
 34 37 0 0 0
SMALL
GASTEIGER

@<TRIPOS>ATOM
      1 O           4.8752   -1.3544    0.0000 O.3     1  UNL1       -0.4488
      2 O           3.5589    1.7246    0.0000 O.3     1  UNL1       -0.3901
      3 O           6.3640   -2.3234    0.0000 O.2     1  UNL1       -0.2456
      4 N           3.8000    1.1175    0.0000 N.3     1  UNL1       -0.2896
      5 C           4.6660   -0.3825    0.0000 C.3     1  UNL1        0.1531
      6 C           3.8000    0.1175    0.0000 C.3     1  UNL1        0.0546
      7 C           4.6660    1.6175    0.0000 C.3     1  UNL1        0.0407
      8 C           4.2660    0.2175    0.0000 C.3     1  UNL1        0.0202
      9 C           4.2660    1.0175    0.0000 C.3     1  UNL1        0.0750
     10 C           5.5321    0.1175    0.0000 C.2     1  UNL1       -0.0167
     11 C           5.5321    1.1175    0.0000 C.3     1  UNL1       -0.0094
     12 C           2.9061   -0.4172    0.0000 C.3     1  UNL1       -0.0333
     13 C           2.9061    1.6521    0.0000 C.3     1  UNL1       -0.0003
     14 C           2.0000    0.0966    0.0000 C.3     1  UNL1       -0.0503
     15 C           2.0000    1.1383    0.0000 C.3     1  UNL1       -0.0401
     16 C           6.2691   -0.5496    0.0000 C.2     1  UNL1        0.0256
     17 C           5.8640   -1.4574    0.0000 C.2     1  UNL1        0.3329
     18 H           3.8000   -0.7325    0.0000 H       1  UNL1        0.0505
     19 H           4.6660    2.4675    0.0000 H       1  UNL1        0.0491
     20 H           3.6790    0.4170    0.0000 H       1  UNL1        0.0333
     21 H           4.8594    0.3971    0.0000 H       1  UNL1        0.0333
     22 H           3.6932    0.7802    0.0000 H       1  UNL1        0.0610
     23 H           6.1426    1.0098    0.0000 H       1  UNL1        0.0327
     24 H           5.7441    1.7001    0.0000 H       1  UNL1        0.0327
     25 H           2.5124   -0.8962    0.0000 H       1  UNL1        0.0282
     26 H           3.3107   -0.8870    0.0000 H       1  UNL1        0.0282
     27 H           3.3107    2.1219    0.0000 H       1  UNL1        0.0427
     28 H           2.5124    2.1311    0.0000 H       1  UNL1        0.0427
     29 H           1.3891    0.2027    0.0000 H       1  UNL1        0.0266
     30 H           1.7909   -0.4870    0.0000 H       1  UNL1        0.0266
     31 H           1.7909    1.7220    0.0000 H       1  UNL1        0.0278
     32 H           1.3891    1.0322    0.0000 H       1  UNL1        0.0278
     33 H           6.8758   -0.4218    0.0000 H       1  UNL1        0.0690
     34 H           3.7194    2.3234    0.0000 H       1  UNL1        0.2098
@<TRIPOS>BOND
     1     5     1    1
     2     1    17    1
     3     9     2    1
     4     2    34    1
     5     3    17    2
     6     4     6    1
     7     4     7    1
     8     4    13    1
     9     5     6    1
    10     5     8    1
    11     5    10    1
    12     6    12    1
    13     6    18    1
    14     7     9    1
    15     7    11    1
    16     7    19    1
    17     8     9    1
    18     8    20    1
    19     8    21    1
    20     9    22    1
    21    10    11    1
    22    10    16    2
    23    11    23    1
    24    11    24    1
    25    12    14    1
    26    12    25    1
    27    12    26    1
    28    13    15    1
    29    13    27    1
    30    13    28    1
    31    14    15    1
    32    14    29    1
    33    14    30    1
    34    15    31    1
    35    15    32    1
    36    16    17    1
    37    16    33    1
