@<TRIPOS>MOLECULE
IMPHY000044
 29 31 0 0 0
SMALL
GASTEIGER

@<TRIPOS>ATOM
      1 O           6.4144    1.8592    0.0000 O.3     1  UNL1       -0.5058
      2 O           4.6660    1.8246    0.0000 O.2     1  UNL1       -0.2864
      3 O           4.6660   -2.1754    0.0000 O.2     1  UNL1       -0.2866
      4 O           2.9176    1.8592    0.0000 O.3     1  UNL1       -0.5060
      5 C           5.5321    0.3246    0.0000 C.ar    1  UNL1        0.0748
      6 C           5.5321   -0.6754    0.0000 C.ar    1  UNL1        0.0366
      7 C           3.8000    0.3246    0.0000 C.ar    1  UNL1        0.0745
      8 C           3.8000   -0.6754    0.0000 C.ar    1  UNL1        0.0366
      9 C           4.6660    0.8246    0.0000 C.2     1  UNL1        0.2015
     10 C           4.6660   -1.1754    0.0000 C.2     1  UNL1        0.1947
     11 C           6.4260    0.8593    0.0000 C.ar    1  UNL1        0.1312
     12 C           7.3321    0.3454    0.0000 C.ar    1  UNL1       -0.0083
     13 C           6.4260   -1.2100    0.0000 C.ar    1  UNL1       -0.0498
     14 C           2.9061    0.8593    0.0000 C.ar    1  UNL1        0.1283
     15 C           7.3321   -0.6962    0.0000 C.ar    1  UNL1       -0.0547
     16 C           2.9061   -1.2100    0.0000 C.ar    1  UNL1       -0.0500
     17 C           2.0000    0.3454    0.0000 C.ar    1  UNL1       -0.0194
     18 C           2.0000   -0.6962    0.0000 C.ar    1  UNL1       -0.0576
     19 C           8.1962    0.8488    0.0000 C.3     1  UNL1       -0.0362
     20 H           6.4188   -1.8300    0.0000 H       1  UNL1        0.0625
     21 H           7.8678   -1.0083    0.0000 H       1  UNL1        0.0622
     22 H           2.9132   -1.8300    0.0000 H       1  UNL1        0.0625
     23 H           1.4643    0.6575    0.0000 H       1  UNL1        0.0654
     24 H           1.4643   -1.0083    0.0000 H       1  UNL1        0.0619
     25 H           8.5082    0.3130    0.0000 H       1  UNL1        0.0279
     26 H           8.7319    1.1608    0.0000 H       1  UNL1        0.0279
     27 H           7.8841    1.3845    0.0000 H       1  UNL1        0.0279
     28 H           6.9478    2.1754    0.0000 H       1  UNL1        0.2922
     29 H           2.3843    2.1754    0.0000 H       1  UNL1        0.2922
@<TRIPOS>BOND
     1     1    11    1
     2     1    28    1
     3     2     9    2
     4     3    10    2
     5     4    14    1
     6     4    29    1
     7     5     6   ar
     8     5     9    1
     9     5    11   ar
    10     6    10    1
    11     6    13   ar
    12     7     8   ar
    13     7     9    1
    14     7    14   ar
    15     8    10    1
    16     8    16   ar
    17    11    12   ar
    18    12    15   ar
    19    12    19    1
    20    13    15   ar
    21    13    20    1
    22    14    17   ar
    23    15    21    1
    24    16    18   ar
    25    16    22    1
    26    17    18   ar
    27    17    23    1
    28    18    24    1
    29    19    25    1
    30    19    26    1
    31    19    27    1
