@<TRIPOS>MOLECULE
IMPHY008088
 41 41 0 0 0
SMALL
GASTEIGER

@<TRIPOS>ATOM
      1 O           9.4282    0.3840    0.0000 O.3     1  UNL1       -0.3673
      2 O           3.7320   -1.7500    0.0000 O.2     1  UNL1       -0.2781
      3 C           9.9282    1.2500    0.0000 C.3     1  UNL1        0.0862
      4 C           8.9282    1.2500    0.0000 C.3     1  UNL1        0.0960
      5 C          10.7942    1.7500    0.0000 C.3     1  UNL1       -0.0241
      6 C          11.6603    1.2500    0.0000 C.3     1  UNL1       -0.0506
      7 C           8.0622    1.7500    0.0000 C.3     1  UNL1        0.0388
      8 C          12.5263    1.7500    0.0000 C.3     1  UNL1       -0.0530
      9 C          13.3923    1.2500    0.0000 C.3     1  UNL1       -0.0531
     10 C          14.2583    1.7500    0.0000 C.3     1  UNL1       -0.0533
     11 C           7.1962    1.2500    0.0000 C.1     1  UNL1       -0.0858
     12 C          15.1244    1.2500    0.0000 C.3     1  UNL1       -0.0559
     13 C          15.9904    1.7500    0.0000 C.3     1  UNL1       -0.0653
     14 C           6.3301    0.7500    0.0000 C.1     1  UNL1       -0.0143
     15 C           5.4641    0.2500    0.0000 C.1     1  UNL1       -0.0064
     16 C           4.5981   -0.2500    0.0000 C.1     1  UNL1       -0.0102
     17 C           3.7320   -0.7500    0.0000 C.2     1  UNL1        0.2292
     18 C           2.8660   -0.2500    0.0000 C.2     1  UNL1       -0.0132
     19 C           2.0000   -0.7500    0.0000 C.2     1  UNL1       -0.0944
     20 H          10.5292    0.6490    0.0000 H       1  UNL1        0.0622
     21 H           8.3272    0.6490    0.0000 H       1  UNL1        0.0631
     22 H          11.1928    2.2250    0.0000 H       1  UNL1        0.0291
     23 H          10.3957    2.2250    0.0000 H       1  UNL1        0.0291
     24 H          11.2617    0.7751    0.0000 H       1  UNL1        0.0266
     25 H          12.0588    0.7751    0.0000 H       1  UNL1        0.0266
     26 H           8.4607    2.2250    0.0000 H       1  UNL1        0.0424
     27 H           7.6636    2.2250    0.0000 H       1  UNL1        0.0424
     28 H          12.9248    2.2250    0.0000 H       1  UNL1        0.0265
     29 H          12.1278    2.2250    0.0000 H       1  UNL1        0.0265
     30 H          12.9938    0.7751    0.0000 H       1  UNL1        0.0265
     31 H          13.7908    0.7751    0.0000 H       1  UNL1        0.0265
     32 H          14.6569    2.2250    0.0000 H       1  UNL1        0.0265
     33 H          13.8598    2.2250    0.0000 H       1  UNL1        0.0265
     34 H          14.7258    0.7751    0.0000 H       1  UNL1        0.0263
     35 H          15.5229    0.7751    0.0000 H       1  UNL1        0.0263
     36 H          16.3004    1.2131    0.0000 H       1  UNL1        0.0230
     37 H          16.5273    2.0600    0.0000 H       1  UNL1        0.0230
     38 H          15.6804    2.2869    0.0000 H       1  UNL1        0.0230
     39 H           2.8660    0.3700    0.0000 H       1  UNL1        0.0657
     40 H           1.4631   -0.4400    0.0000 H       1  UNL1        0.0536
     41 H           2.0000   -1.3700    0.0000 H       1  UNL1        0.0536
@<TRIPOS>BOND
     1     1     3    1
     2     1     4    1
     3     2    17    2
     4     3     4    1
     5     3     5    1
     6     3    20    1
     7     4     7    1
     8     4    21    1
     9     5     6    1
    10     5    22    1
    11     5    23    1
    12     6     8    1
    13     6    24    1
    14     6    25    1
    15     7    11    1
    16     7    26    1
    17     7    27    1
    18     8     9    1
    19     8    28    1
    20     8    29    1
    21     9    10    1
    22     9    30    1
    23     9    31    1
    24    10    12    1
    25    10    32    1
    26    10    33    1
    27    11    14    3
    28    12    13    1
    29    12    34    1
    30    12    35    1
    31    13    36    1
    32    13    37    1
    33    13    38    1
    34    14    15    1
    35    15    16    3
    36    16    17    1
    37    17    18    1
    38    18    19    2
    39    18    39    1
    40    19    40    1
    41    19    41    1
