@<TRIPOS>MOLECULE
IMPHY002306
 79 84 0 0 0
SMALL
GASTEIGER

@<TRIPOS>ATOM
      1 O          11.1160    3.0415    0.0000 O.3     1  UNL1       -0.3753
      2 O           2.5369   -0.4465    0.0000 O.3     1  UNL1       -0.4802
      3 O           3.4030    1.0535    0.0000 O.2     1  UNL1       -0.2504
      4 C           8.7941    1.1092    0.0000 C.3     1  UNL1       -0.0249
      5 C           7.0621    1.1092    0.0000 C.3     1  UNL1       -0.0194
      6 C           7.9281    0.6092    0.0000 C.3     1  UNL1       -0.0257
      7 C           8.7941    2.1092    0.0000 C.3     1  UNL1       -0.0255
      8 C           6.1521    0.6024    0.0000 C.3     1  UNL1       -0.0051
      9 C           9.6881    2.6439    0.0000 C.3     1  UNL1        0.0208
     10 C           7.0621    2.1092    0.0000 C.3     1  UNL1       -0.0463
     11 C           7.9281    2.6092    0.0000 C.3     1  UNL1       -0.0485
     12 C           9.6881    0.5745    0.0000 C.3     1  UNL1       -0.0447
     13 C          10.5941    2.1300    0.0000 C.3     1  UNL1        0.0664
     14 C           6.1440   -0.4392    0.0000 C.2     1  UNL1       -0.0629
     15 C           7.9442   -0.4323    0.0000 C.3     1  UNL1       -0.0306
     16 C           5.2086   -0.9890    0.0000 C.3     1  UNL1       -0.0031
     17 C          10.5941    1.0884    0.0000 C.3     1  UNL1       -0.0255
     18 C           5.2252    1.1664    0.0000 C.3     1  UNL1       -0.0424
     19 C           4.2690   -0.4465    0.0000 C.3     1  UNL1        0.0741
     20 C          10.2024    3.5596    0.0000 C.3     1  UNL1        0.0560
     21 C           8.7941    0.1092    0.0000 C.3     1  UNL1       -0.0590
     22 C           6.4193    1.8752    0.0000 C.3     1  UNL1       -0.0585
     23 C           4.2774    0.6385    0.0000 C.3     1  UNL1       -0.0359
     24 C           7.0461   -0.9601    0.0000 C.2     1  UNL1       -0.0836
     25 C           5.8173    1.5446    0.0000 C.3     1  UNL1       -0.0553
     26 C           8.8182    3.1372    0.0000 C.3     1  UNL1       -0.0548
     27 C           5.2260   -2.1190    0.0000 C.3     1  UNL1       -0.0403
     28 C           3.2816   -0.9964    0.0000 C.3     1  UNL1       -0.0362
     29 C           4.2517   -2.6916    0.0000 C.3     1  UNL1       -0.0343
     30 C           3.2729   -2.1265    0.0000 C.3     1  UNL1       -0.0468
     31 C           3.4030    0.0535    0.0000 C.2     1  UNL1        0.3115
     32 C           3.7550   -3.5596    0.0000 C.3     1  UNL1       -0.0598
     33 C           4.7550   -3.5557    0.0000 C.3     1  UNL1       -0.0598
     34 H           8.6675    0.1899    0.0000 H       1  UNL1        0.0315
     35 H           9.5335    1.6899    0.0000 H       1  UNL1        0.0313
     36 H           6.8500    2.6918    0.0000 H       1  UNL1        0.0271
     37 H           6.4515    2.0015    0.0000 H       1  UNL1        0.0271
     38 H           8.3266    3.0842    0.0000 H       1  UNL1        0.0268
     39 H           7.5296    3.0842    0.0000 H       1  UNL1        0.0268
     40 H           9.2835    0.1047    0.0000 H       1  UNL1        0.0271
     41 H          10.0817    0.0955    0.0000 H       1  UNL1        0.0271
     42 H          11.4156    1.9115    0.0000 H       1  UNL1        0.0602
     43 H           8.1622   -1.0127    0.0000 H       1  UNL1        0.0310
     44 H           8.5533   -0.3168    0.0000 H       1  UNL1        0.0310
     45 H           5.9496   -1.4054    0.0000 H       1  UNL1        0.0357
     46 H          10.8032    0.5047    0.0000 H       1  UNL1        0.0290
     47 H          11.2050    1.1945    0.0000 H       1  UNL1        0.0290
     48 H           5.6334    1.6331    0.0000 H       1  UNL1        0.0274
     49 H           4.8353    1.6485    0.0000 H       1  UNL1        0.0274
     50 H          10.5075    4.0993    0.0000 H       1  UNL1        0.0566
     51 H           9.6623    3.8639    0.0000 H       1  UNL1        0.0566
     52 H           8.1741    0.1092    0.0000 H       1  UNL1        0.0235
     53 H           8.7941   -0.5108    0.0000 H       1  UNL1        0.0235
     54 H           9.4141    0.1092    0.0000 H       1  UNL1        0.0235
     55 H           6.8942    2.2738    0.0000 H       1  UNL1        0.0235
     56 H           6.0208    2.3502    0.0000 H       1  UNL1        0.0235
     57 H           5.9443    1.4767    0.0000 H       1  UNL1        0.0235
     58 H           4.0728    1.2238    0.0000 H       1  UNL1        0.0276
     59 H           3.6657    0.5371    0.0000 H       1  UNL1        0.0276
     60 H           7.0485   -1.5801    0.0000 H       1  UNL1        0.0572
     61 H           6.4015    1.7522    0.0000 H       1  UNL1        0.0238
     62 H           5.6098    2.1289    0.0000 H       1  UNL1        0.0238
     63 H           5.2331    1.3371    0.0000 H       1  UNL1        0.0238
     64 H           9.1241    3.6765    0.0000 H       1  UNL1        0.0237
     65 H           8.2789    3.4430    0.0000 H       1  UNL1        0.0237
     66 H           8.5124    2.5979    0.0000 H       1  UNL1        0.0237
     67 H           5.4441   -2.6994    0.0000 H       1  UNL1        0.0276
     68 H           5.8352   -2.0035    0.0000 H       1  UNL1        0.0276
     69 H           3.0771   -0.4111    0.0000 H       1  UNL1        0.0276
     70 H           2.6700   -1.0978    0.0000 H       1  UNL1        0.0276
     71 H           2.6629   -2.0157    0.0000 H       1  UNL1        0.0271
     72 H           3.0594   -2.7086    0.0000 H       1  UNL1        0.0271
     73 H           4.2193   -3.8678    0.0000 H       1  UNL1        0.0235
     74 H           5.0671   -4.0914    0.0000 H       1  UNL1        0.0235
     75 H           3.2169   -3.2516    0.0000 H       1  UNL1        0.0235
     76 H           3.4471   -4.0977    0.0000 H       1  UNL1        0.0235
     77 H           5.2908   -3.2436    0.0000 H       1  UNL1        0.0235
     78 H           4.2932   -3.8675    0.0000 H       1  UNL1        0.0235
     79 H           2.0000   -0.1365    0.0000 H       1  UNL1        0.2951
@<TRIPOS>BOND
     1     1    13    1
     2     1    20    1
     3     2    31    1
     4     2    79    1
     5     3    31    2
     6     4     6    1
     7     4     7    1
     8     4    12    1
     9     4    21    1
    10     5     6    1
    11     5     8    1
    12     5    10    1
    13     5    22    1
    14     6    15    1
    15     6    34    1
    16     7     9    1
    17     7    11    1
    18     7    35    1
    19     8    14    1
    20     8    18    1
    21     8    25    1
    22     9    13    1
    23     9    20    1
    24     9    26    1
    25    10    11    1
    26    10    36    1
    27    10    37    1
    28    11    38    1
    29    11    39    1
    30    12    17    1
    31    12    40    1
    32    12    41    1
    33    13    17    1
    34    13    42    1
    35    14    16    1
    36    14    24    2
    37    15    24    1
    38    15    43    1
    39    15    44    1
    40    16    19    1
    41    16    27    1
    42    16    45    1
    43    17    46    1
    44    17    47    1
    45    18    23    1
    46    18    48    1
    47    18    49    1
    48    19    23    1
    49    19    28    1
    50    19    31    1
    51    20    50    1
    52    20    51    1
    53    21    52    1
    54    21    53    1
    55    21    54    1
    56    22    55    1
    57    22    56    1
    58    22    57    1
    59    23    58    1
    60    23    59    1
    61    24    60    1
    62    25    61    1
    63    25    62    1
    64    25    63    1
    65    26    64    1
    66    26    65    1
    67    26    66    1
    68    27    29    1
    69    27    67    1
    70    27    68    1
    71    28    30    1
    72    28    69    1
    73    28    70    1
    74    29    30    1
    75    29    32    1
    76    29    33    1
    77    30    71    1
    78    30    72    1
    79    32    75    1
    80    32    76    1
    81    32    78    1
    82    33    73    1
    83    33    74    1
    84    33    77    1
