@<TRIPOS>MOLECULE
IMPHY006116
 56 62 0 0 0
SMALL
GASTEIGER

@<TRIPOS>ATOM
      1 O           8.7289    2.7960    0.0000 O.3     1  UNL1       -0.5060
      2 O           7.8830    3.2843    0.0000 O.3     1  UNL1       -0.5060
      3 O          10.5090   -0.1516    0.0000 O.3     1  UNL1       -0.5059
      4 O           4.4403    3.3521    0.0000 O.3     1  UNL1       -0.5059
      5 O           9.6640   -1.7460    0.0000 O.2     1  UNL1       -0.2864
      6 O           3.4819    1.8232    0.0000 O.2     1  UNL1       -0.2864
      7 O           2.5381    0.2463    0.0000 O.3     1  UNL1       -0.5060
      8 O           8.7703   -3.3518    0.0000 O.3     1  UNL1       -0.5060
      9 C           7.0120   -0.2009    0.0000 C.ar    1  UNL1       -0.0001
     10 C           6.1460    0.2991    0.0000 C.ar    1  UNL1       -0.0001
     11 C           7.8781    0.2991    0.0000 C.ar    1  UNL1        0.0090
     12 C           6.1460    1.2991    0.0000 C.ar    1  UNL1        0.0090
     13 C           7.0120    1.7991    0.0000 C.ar    1  UNL1        0.0363
     14 C           7.8781    1.2991    0.0000 C.ar    1  UNL1        0.0363
     15 C           6.9960   -1.2424    0.0000 C.ar    1  UNL1       -0.0021
     16 C           5.2521   -0.2356    0.0000 C.ar    1  UNL1       -0.0021
     17 C           5.2521    1.8337    0.0000 C.ar    1  UNL1        0.0723
     18 C           8.7881   -0.2078    0.0000 C.ar    1  UNL1        0.0723
     19 C           4.3460    0.2782    0.0000 C.ar    1  UNL1        0.0715
     20 C           7.8940   -1.7702    0.0000 C.ar    1  UNL1        0.0715
     21 C           8.7961   -1.2494    0.0000 C.2     1  UNL1        0.2013
     22 C           4.3460    1.3199    0.0000 C.2     1  UNL1        0.2013
     23 C           7.0133    2.7908    0.0000 C.ar    1  UNL1        0.1288
     24 C           8.7363    1.7960    0.0000 C.ar    1  UNL1        0.1288
     25 C           5.2899    2.8247    0.0000 C.ar    1  UNL1        0.1317
     26 C           9.6274    0.3204    0.0000 C.ar    1  UNL1        0.1317
     27 C           5.2772   -1.3203    0.0000 C.ar    1  UNL1       -0.0502
     28 C           6.0441   -1.7631    0.0000 C.ar    1  UNL1       -0.0502
     29 C           9.6018    1.3118    0.0000 C.ar    1  UNL1        0.0227
     30 C           6.1612    3.2982    0.0000 C.ar    1  UNL1        0.0227
     31 C           3.4022   -0.2570    0.0000 C.ar    1  UNL1        0.1285
     32 C           7.9024   -2.8552    0.0000 C.ar    1  UNL1        0.1285
     33 C           4.3460   -1.8772    0.0000 C.ar    1  UNL1       -0.0464
     34 C           6.0273   -2.8479    0.0000 C.ar    1  UNL1       -0.0464
     35 C           6.9628   -3.3977    0.0000 C.ar    1  UNL1       -0.0165
     36 C           3.4022   -1.3420    0.0000 C.ar    1  UNL1       -0.0165
     37 C           5.1556   -3.3379    0.0000 C.3     1  UNL1       -0.0396
     38 C           4.3576   -2.8772    0.0000 C.3     1  UNL1       -0.0396
     39 H           5.8200   -1.6199    0.0000 H       1  UNL1        0.0626
     40 H           5.5132   -1.4428    0.0000 H       1  UNL1        0.0626
     41 H           6.1734    3.9181    0.0000 H       1  UNL1        0.0691
     42 H          10.1325    1.6323    0.0000 H       1  UNL1        0.0691
     43 H           2.8665   -1.6541    0.0000 H       1  UNL1        0.0657
     44 H           6.9604   -4.0177    0.0000 H       1  UNL1        0.0657
     45 H           7.8876    3.9043    0.0000 H       1  UNL1        0.2922
     46 H           9.2635    3.1099    0.0000 H       1  UNL1        0.2922
     47 H           3.7376   -2.8843    0.0000 H       1  UNL1        0.0278
     48 H           4.8518   -2.7974    0.0000 H       1  UNL1        0.0278
     49 H           4.6151   -3.6417    0.0000 H       1  UNL1        0.0278
     50 H           5.4594   -3.8784    0.0000 H       1  UNL1        0.0278
     51 H           4.3647   -3.4971    0.0000 H       1  UNL1        0.0278
     52 H           4.9775   -2.8700    0.0000 H       1  UNL1        0.0278
     53 H          11.0357    0.1754    0.0000 H       1  UNL1        0.2922
     54 H           4.4601    3.9718    0.0000 H       1  UNL1        0.2922
     55 H           2.0000   -0.0616    0.0000 H       1  UNL1        0.2922
     56 H           8.7727   -3.9718    0.0000 H       1  UNL1        0.2922
@<TRIPOS>BOND
     1     1    24    1
     2     1    46    1
     3     2    23    1
     4     2    45    1
     5     3    26    1
     6     3    53    1
     7     4    25    1
     8     4    54    1
     9     5    21    2
    10     6    22    2
    11     7    31    1
    12     7    55    1
    13     8    32    1
    14     8    56    1
    15     9    10   ar
    16     9    11   ar
    17     9    15    1
    18    10    12   ar
    19    10    16    1
    20    11    14   ar
    21    11    18   ar
    22    12    13   ar
    23    12    17   ar
    24    13    14   ar
    25    13    23   ar
    26    14    24   ar
    27    15    20   ar
    28    15    28   ar
    29    16    19   ar
    30    16    27   ar
    31    17    22    1
    32    17    25   ar
    33    18    21    1
    34    18    26   ar
    35    19    22    1
    36    19    31   ar
    37    20    21    1
    38    20    32   ar
    39    23    30   ar
    40    24    29   ar
    41    25    30   ar
    42    26    29   ar
    43    27    33   ar
    44    27    39    1
    45    28    34   ar
    46    28    40    1
    47    29    42    1
    48    30    41    1
    49    31    36   ar
    50    32    35   ar
    51    33    36   ar
    52    33    38    1
    53    34    35   ar
    54    34    37    1
    55    35    44    1
    56    36    43    1
    57    37    48    1
    58    37    49    1
    59    37    50    1
    60    38    47    1
    61    38    51    1
    62    38    52    1
