@<TRIPOS>MOLECULE
IMPHY014815
 72 75 0 0 0
SMALL
GASTEIGER

@<TRIPOS>ATOM
      1 O           5.5010   -3.8226    0.0000 O.3     1  UNL1       -0.4641
      2 O           4.2410   -2.5625    0.0000 O.2     1  UNL1       -0.2505
      3 O           2.5369   -1.2838    0.0000 O.3     1  UNL1       -0.4914
      4 O           2.5369    0.7162    0.0000 O.3     1  UNL1       -0.5031
      5 O           8.8316   -5.8571    0.0000 O.3     1  UNL1       -0.4915
      6 O           3.4030    3.2162    0.0000 O.3     1  UNL1       -0.3940
      7 O          10.7337   -5.2391    0.0000 O.3     1  UNL1       -0.5033
      8 O           6.0010    1.7162    0.0000 O.2     1  UNL1       -0.2913
      9 O           6.8671    5.2162    0.0000 O.3     1  UNL1       -0.4914
     10 O           5.1350    6.2162    0.0000 O.3     1  UNL1       -0.5033
     11 C           6.8100   -2.8716    0.0000 C.3     1  UNL1        0.0105
     12 C           6.0010   -2.2838    0.0000 C.3     1  UNL1        0.0666
     13 C           6.5010   -3.8226    0.0000 C.3     1  UNL1        0.0963
     14 C           6.0010   -1.2838    0.0000 C.3     1  UNL1       -0.0142
     15 C           7.7611   -2.5625    0.0000 C.3     1  UNL1       -0.0209
     16 C           5.1920   -2.8716    0.0000 C.2     1  UNL1        0.3109
     17 C           5.1350   -0.7838    0.0000 C.ar    1  UNL1       -0.0426
     18 C           8.5043   -3.2317    0.0000 C.ar    1  UNL1       -0.0433
     19 C           5.1350    0.2162    0.0000 C.ar    1  UNL1       -0.0509
     20 C           4.2690   -1.2838    0.0000 C.ar    1  UNL1       -0.0131
     21 C           4.2690    0.7162    0.0000 C.ar    1  UNL1        0.0107
     22 C           8.2963   -4.2098    0.0000 C.ar    1  UNL1       -0.0131
     23 C           4.2690    1.7162    0.0000 C.3     1  UNL1        0.0737
     24 C           9.4553   -2.9226    0.0000 C.ar    1  UNL1       -0.0549
     25 C           3.4030   -0.7838    0.0000 C.ar    1  UNL1        0.1618
     26 C           3.4030    0.2162    0.0000 C.ar    1  UNL1        0.1625
     27 C           9.0395   -4.8790    0.0000 C.ar    1  UNL1        0.1615
     28 C          10.1985   -3.5918    0.0000 C.ar    1  UNL1       -0.0163
     29 C           3.4030    2.2162    0.0000 C.3     1  UNL1        0.0582
     30 C           5.1350    2.2162    0.0000 C.2     1  UNL1        0.1729
     31 C           9.9906   -4.5699    0.0000 C.ar    1  UNL1        0.1585
     32 C           5.1350    3.2162    0.0000 C.ar    1  UNL1        0.0218
     33 C           2.5369   -2.2838    0.0000 C.3     1  UNL1        0.0790
     34 C           6.0010    3.7162    0.0000 C.ar    1  UNL1       -0.0058
     35 C           4.2690    3.7162    0.0000 C.ar    1  UNL1       -0.0476
     36 C           9.5747   -6.5262    0.0000 C.3     1  UNL1        0.0790
     37 C           6.0010    4.7162    0.0000 C.ar    1  UNL1        0.1619
     38 C           4.2690    4.7162    0.0000 C.ar    1  UNL1       -0.0159
     39 C           5.1350    5.2162    0.0000 C.ar    1  UNL1        0.1585
     40 C           7.7331    4.7162    0.0000 C.3     1  UNL1        0.0790
     41 H           7.2485   -3.3100    0.0000 H       1  UNL1        0.0345
     42 H           6.5535   -2.0023    0.0000 H       1  UNL1        0.0420
     43 H           6.4362   -4.4392    0.0000 H       1  UNL1        0.0700
     44 H           7.1075   -3.9515    0.0000 H       1  UNL1        0.0700
     45 H           6.6116   -1.3914    0.0000 H       1  UNL1        0.0321
     46 H           6.2131   -0.7012    0.0000 H       1  UNL1        0.0321
     47 H           8.2497   -2.1808    0.0000 H       1  UNL1        0.0317
     48 H           7.4700   -2.0151    0.0000 H       1  UNL1        0.0317
     49 H           5.6720    0.5262    0.0000 H       1  UNL1        0.0624
     50 H           4.2690   -1.9038    0.0000 H       1  UNL1        0.0658
     51 H           7.7067   -4.4014    0.0000 H       1  UNL1        0.0658
     52 H           4.2690    2.3362    0.0000 H       1  UNL1        0.0453
     53 H           9.5842   -2.3162    0.0000 H       1  UNL1        0.0621
     54 H          10.7881   -3.4002    0.0000 H       1  UNL1        0.0655
     55 H           2.7924    2.3239    0.0000 H       1  UNL1        0.0567
     56 H           3.1909    1.6336    0.0000 H       1  UNL1        0.0567
     57 H           2.0000    0.4062    0.0000 H       1  UNL1        0.2923
     58 H           2.8660    3.5262    0.0000 H       1  UNL1        0.2094
     59 H           1.9169   -2.2838    0.0000 H       1  UNL1        0.0660
     60 H           2.5369   -2.9038    0.0000 H       1  UNL1        0.0660
     61 H           3.1569   -2.2838    0.0000 H       1  UNL1        0.0660
     62 H           6.5380    3.4062    0.0000 H       1  UNL1        0.0662
     63 H           3.7320    3.4062    0.0000 H       1  UNL1        0.0626
     64 H          11.3233   -5.0475    0.0000 H       1  UNL1        0.2923
     65 H           9.1599   -6.9870    0.0000 H       1  UNL1        0.0660
     66 H          10.0355   -6.9411    0.0000 H       1  UNL1        0.0660
     67 H           9.9896   -6.0655    0.0000 H       1  UNL1        0.0660
     68 H           3.7320    5.0262    0.0000 H       1  UNL1        0.0655
     69 H           4.5981    6.5262    0.0000 H       1  UNL1        0.2923
     70 H           7.4231    4.1793    0.0000 H       1  UNL1        0.0660
     71 H           8.2700    4.4062    0.0000 H       1  UNL1        0.0660
     72 H           8.0431    5.2532    0.0000 H       1  UNL1        0.0660
@<TRIPOS>BOND
     1     1    13    1
     2     1    16    1
     3     2    16    2
     4     3    25    1
     5     3    33    1
     6     4    26    1
     7     4    57    1
     8     5    27    1
     9     5    36    1
    10     6    29    1
    11     6    58    1
    12     7    31    1
    13     7    64    1
    14     8    30    2
    15     9    37    1
    16     9    40    1
    17    10    39    1
    18    10    69    1
    19    11    12    1
    20    11    13    1
    21    11    15    1
    22    11    41    1
    23    12    14    1
    24    12    16    1
    25    12    42    1
    26    13    43    1
    27    13    44    1
    28    14    17    1
    29    14    45    1
    30    14    46    1
    31    15    18    1
    32    15    47    1
    33    15    48    1
    34    17    19   ar
    35    17    20   ar
    36    18    22   ar
    37    18    24   ar
    38    19    21   ar
    39    19    49    1
    40    20    25   ar
    41    20    50    1
    42    21    23    1
    43    21    26   ar
    44    22    27   ar
    45    22    51    1
    46    23    29    1
    47    23    30    1
    48    23    52    1
    49    24    28   ar
    50    24    53    1
    51    25    26   ar
    52    27    31   ar
    53    28    31   ar
    54    28    54    1
    55    29    55    1
    56    29    56    1
    57    30    32    1
    58    32    34   ar
    59    32    35   ar
    60    33    59    1
    61    33    60    1
    62    33    61    1
    63    34    37   ar
    64    34    62    1
    65    35    38   ar
    66    35    63    1
    67    36    65    1
    68    36    66    1
    69    36    67    1
    70    37    39   ar
    71    38    39   ar
    72    38    68    1
    73    40    70    1
    74    40    71    1
    75    40    72    1
