@<TRIPOS>MOLECULE
IMPHY009660
 24 24 0 0 0
SMALL
GASTEIGER

@<TRIPOS>ATOM
      1 O           3.7320   -2.8100    0.0000 O.2     1  UNL1       -0.2974
      2 O           3.7320    2.1900    0.0000 O.3     1  UNL1       -0.4773
      3 O           2.0000    2.1900    0.0000 O.2     1  UNL1       -0.2455
      4 C           2.8660   -1.3100    0.0000 C.3     1  UNL1        0.0210
      5 C           3.7320   -0.8100    0.0000 C.3     1  UNL1       -0.0390
      6 C           2.0000   -0.8100    0.0000 C.3     1  UNL1       -0.0245
      7 C           3.7320    0.1900    0.0000 C.3     1  UNL1       -0.0206
      8 C           2.8660    0.6900    0.0000 C.2     1  UNL1        0.0326
      9 C           2.0000    0.1900    0.0000 C.2     1  UNL1       -0.0734
     10 C           2.8660   -2.3100    0.0000 C.2     1  UNL1        0.1337
     11 C           2.0000   -2.8100    0.0000 C.3     1  UNL1       -0.0058
     12 C           2.8660    1.6900    0.0000 C.2     1  UNL1        0.3325
     13 H           3.4030   -1.6200    0.0000 H       1  UNL1        0.0380
     14 H           3.9441   -1.3926    0.0000 H       1  UNL1        0.0275
     15 H           4.3426   -0.7023    0.0000 H       1  UNL1        0.0275
     16 H           1.3894   -0.7023    0.0000 H       1  UNL1        0.0314
     17 H           1.7880   -1.3926    0.0000 H       1  UNL1        0.0314
     18 H           4.3426    0.0823    0.0000 H       1  UNL1        0.0315
     19 H           3.9441    0.7726    0.0000 H       1  UNL1        0.0315
     20 H           1.4631    0.5000    0.0000 H       1  UNL1        0.0577
     21 H           1.6900   -2.2731    0.0000 H       1  UNL1        0.0306
     22 H           1.4631   -3.1200    0.0000 H       1  UNL1        0.0306
     23 H           2.3100   -3.3469    0.0000 H       1  UNL1        0.0306
     24 H           3.7320    2.8100    0.0000 H       1  UNL1        0.2954
@<TRIPOS>BOND
     1     1    10    2
     2     2    12    1
     3     2    24    1
     4     3    12    2
     5     4     5    1
     6     4     6    1
     7     4    10    1
     8     4    13    1
     9     5     7    1
    10     5    14    1
    11     5    15    1
    12     6     9    1
    13     6    16    1
    14     6    17    1
    15     7     8    1
    16     7    18    1
    17     7    19    1
    18     8     9    2
    19     8    12    1
    20     9    20    1
    21    10    11    1
    22    11    21    1
    23    11    22    1
    24    11    23    1
