@<TRIPOS>MOLECULE
IMPHY000926
 99 105 0 0 0
SMALL
GASTEIGER

@<TRIPOS>ATOM
      1 O           6.8475   -1.2887    0.0000 O.3     1  UNL1       -0.4573
      2 O           8.3651   -2.4575    0.0000 O.3     1  UNL1       -0.3790
      3 O          10.1877    1.3043    0.0000 O.3     1  UNL1       -0.3791
      4 O           6.4713    1.0528    0.0000 O.3     1  UNL1       -0.4544
      5 O           8.0625    2.6162    0.0000 O.3     1  UNL1       -0.3823
      6 O           6.0701    1.7623    0.0000 O.3     1  UNL1       -0.3767
      7 O          11.0538   -2.9309    0.0000 O.3     1  UNL1       -0.3824
      8 O           5.1633   -0.8844    0.0000 O.2     1  UNL1       -0.2511
      9 O           5.4743   -0.3636    0.0000 O.2     1  UNL1       -0.2449
     10 O           2.1138    0.9429    0.0000 O.3     1  UNL1       -0.4914
     11 O           2.2931    2.9349    0.0000 O.3     1  UNL1       -0.4915
     12 N          11.3831   -0.5247    0.0000 N.3     1  UNL1       -0.2979
     13 C           9.4364   -0.1295    0.0000 C.3     1  UNL1        0.0221
     14 C           9.4364   -0.9971    0.0000 C.3     1  UNL1        0.0043
     15 C           8.7581    0.4114    0.0000 C.3     1  UNL1       -0.0185
     16 C          10.4384   -0.2355    0.0000 C.3     1  UNL1        0.0279
     17 C           7.9123   -1.3450    0.0000 C.3     1  UNL1        0.0421
     18 C           7.9123    0.2184    0.0000 C.3     1  UNL1        0.0429
     19 C           7.5358   -0.5633    0.0000 C.3     1  UNL1        0.1291
     20 C           8.7581   -1.5380    0.0000 C.3     1  UNL1        0.0703
     21 C          10.1877   -1.4309    0.0000 C.3     1  UNL1        0.0127
     22 C          10.1877    0.3043    0.0000 C.3     1  UNL1        0.0660
     23 C           8.8359    1.2755    0.0000 C.3     1  UNL1       -0.0140
     24 C           8.0381    1.6165    0.0000 C.3     1  UNL1        0.1294
     25 C           7.4673    0.9631    0.0000 C.3     1  UNL1        0.1410
     26 C           6.8910   -0.2934    0.0000 C.3     1  UNL1        0.0171
     27 C          11.3831   -1.2766    0.0000 C.3     1  UNL1        0.0073
     28 C          10.9391   -0.9971    0.0000 C.3     1  UNL1       -0.0414
     29 C           6.8910    1.1912    0.0000 C.3     1  UNL1        0.0941
     30 C          10.9391   -0.1295    0.0000 C.3     1  UNL1       -0.0254
     31 C          10.1877   -2.4309    0.0000 C.3     1  UNL1        0.0544
     32 C          12.1870    0.0699    0.0000 C.3     1  UNL1       -0.0036
     33 C           5.8887   -1.5727    0.0000 C.2     1  UNL1        0.3045
     34 C           8.9649   -3.2577    0.0000 C.3     1  UNL1        0.0368
     35 C          13.1040   -0.3290    0.0000 C.3     1  UNL1       -0.0523
     36 C          11.0538    1.8043    0.0000 C.3     1  UNL1        0.0368
     37 C           5.5640    0.6324    0.0000 C.2     1  UNL1        0.3397
     38 C           6.1542    2.7587    0.0000 C.3     1  UNL1        0.0369
     39 C           5.6553   -2.5451    0.0000 C.3     1  UNL1        0.0333
     40 C          11.0538   -3.9309    0.0000 C.3     1  UNL1        0.0365
     41 C           4.7462    1.2080    0.0000 C.ar    1  UNL1        0.0627
     42 C           3.8389    0.7877    0.0000 C.ar    1  UNL1       -0.0023
     43 C           4.8359    2.2040    0.0000 C.ar    1  UNL1       -0.0441
     44 C           3.0212    1.3633    0.0000 C.ar    1  UNL1        0.1623
     45 C           4.0182    2.7796    0.0000 C.ar    1  UNL1       -0.0155
     46 C           3.1108    2.3593    0.0000 C.ar    1  UNL1        0.1615
     47 C           1.2961    1.5186    0.0000 C.3     1  UNL1        0.0790
     48 C           2.3827    3.9309    0.0000 C.3     1  UNL1        0.0790
     49 H           9.4999   -1.8447    0.0000 H       1  UNL1        0.0339
     50 H           9.5397    0.7455    0.0000 H       1  UNL1        0.0314
     51 H          10.5623    0.3719    0.0000 H       1  UNL1        0.0474
     52 H           7.3823   -2.0095    0.0000 H       1  UNL1        0.0380
     53 H           7.0631    0.1802    0.0000 H       1  UNL1        0.0379
     54 H           8.9585   -2.1247    0.0000 H       1  UNL1        0.0603
     55 H           9.6508    0.6143    0.0000 H       1  UNL1        0.0602
     56 H           9.0186    1.8680    0.0000 H       1  UNL1        0.0298
     57 H           9.4442    1.1557    0.0000 H       1  UNL1        0.0298
     58 H           7.2365    1.5386    0.0000 H       1  UNL1        0.0768
     59 H           6.7290   -0.8918    0.0000 H       1  UNL1        0.0330
     60 H           6.2764   -0.2117    0.0000 H       1  UNL1        0.0330
     61 H          12.0025   -1.2501    0.0000 H       1  UNL1        0.0433
     62 H          11.4360   -1.8944    0.0000 H       1  UNL1        0.0433
     63 H          11.5497   -0.8894    0.0000 H       1  UNL1        0.0273
     64 H          11.1511   -1.5797    0.0000 H       1  UNL1        0.0273
     65 H           6.9691    1.8062    0.0000 H       1  UNL1        0.0627
     66 H          11.1511    0.4531    0.0000 H       1  UNL1        0.0290
     67 H          11.5497   -0.2372    0.0000 H       1  UNL1        0.0290
     68 H           9.9757   -3.0135    0.0000 H       1  UNL1        0.0566
     69 H           9.5772   -2.3232    0.0000 H       1  UNL1        0.0566
     70 H          11.7374    0.4968    0.0000 H       1  UNL1        0.0424
     71 H          12.5293    0.5869    0.0000 H       1  UNL1        0.0424
     72 H           7.5333    2.9392    0.0000 H       1  UNL1        0.2104
     73 H           9.4610   -2.8858    0.0000 H       1  UNL1        0.0524
     74 H           9.3368   -3.7538    0.0000 H       1  UNL1        0.0524
     75 H           8.4688   -3.6296    0.0000 H       1  UNL1        0.0524
     76 H          13.3513    0.2396    0.0000 H       1  UNL1        0.0242
     77 H          13.6726   -0.5763    0.0000 H       1  UNL1        0.0242
     78 H          12.8567   -0.8975    0.0000 H       1  UNL1        0.0242
     79 H          10.7438    2.3412    0.0000 H       1  UNL1        0.0524
     80 H          11.5907    2.1143    0.0000 H       1  UNL1        0.0524
     81 H          11.3638    1.2674    0.0000 H       1  UNL1        0.0524
     82 H           5.5364    2.8109    0.0000 H       1  UNL1        0.0524
     83 H           6.2064    3.3765    0.0000 H       1  UNL1        0.0524
     84 H           6.7720    2.7065    0.0000 H       1  UNL1        0.0524
     85 H           6.2582   -2.6898    0.0000 H       1  UNL1        0.0342
     86 H           5.5106   -3.1480    0.0000 H       1  UNL1        0.0342
     87 H           5.0524   -2.4004    0.0000 H       1  UNL1        0.0342
     88 H          11.6738   -3.9309    0.0000 H       1  UNL1        0.0523
     89 H          11.0538   -4.5509    0.0000 H       1  UNL1        0.0523
     90 H          10.4338   -3.9309    0.0000 H       1  UNL1        0.0523
     91 H           3.7833    0.1702    0.0000 H       1  UNL1        0.0663
     92 H           5.3984    2.4646    0.0000 H       1  UNL1        0.0627
     93 H           4.0737    3.3971    0.0000 H       1  UNL1        0.0655
     94 H           0.9392    1.0116    0.0000 H       1  UNL1        0.0660
     95 H           0.7891    1.8754    0.0000 H       1  UNL1        0.0660
     96 H           1.6530    2.0255    0.0000 H       1  UNL1        0.0660
     97 H           1.7652    3.9864    0.0000 H       1  UNL1        0.0660
     98 H           2.4383    4.5484    0.0000 H       1  UNL1        0.0660
     99 H           3.0002    3.8753    0.0000 H       1  UNL1        0.0660
@<TRIPOS>BOND
     1    19     1    1
     2     1    33    1
     3    20     2    1
     4     2    34    1
     5    22     3    1
     6     3    36    1
     7    25     4    1
     8     4    37    1
     9    24     5    1
    10     5    72    1
    11    29     6    1
    12     6    38    1
    13     7    31    1
    14     7    40    1
    15     8    33    2
    16     9    37    2
    17    10    44    1
    18    10    47    1
    19    11    46    1
    20    11    48    1
    21    12    16    1
    22    12    27    1
    23    12    32    1
    24    13    14    1
    25    13    15    1
    26    13    16    1
    27    13    22    1
    28    14    20    1
    29    14    21    1
    30    14    49    1
    31    15    18    1
    32    15    23    1
    33    15    50    1
    34    16    17    1
    35    16    51    1
    36    17    19    1
    37    17    20    1
    38    17    52    1
    39    18    19    1
    40    18    25    1
    41    18    53    1
    42    19    26    1
    43    20    54    1
    44    21    27    1
    45    21    28    1
    46    21    31    1
    47    22    30    1
    48    22    55    1
    49    23    24    1
    50    23    56    1
    51    23    57    1
    52    24    25    1
    53    24    29    1
    54    25    58    1
    55    26    29    1
    56    26    59    1
    57    26    60    1
    58    27    61    1
    59    27    62    1
    60    28    30    1
    61    28    63    1
    62    28    64    1
    63    29    65    1
    64    30    66    1
    65    30    67    1
    66    31    68    1
    67    31    69    1
    68    32    35    1
    69    32    70    1
    70    32    71    1
    71    33    39    1
    72    34    73    1
    73    34    74    1
    74    34    75    1
    75    35    76    1
    76    35    77    1
    77    35    78    1
    78    36    79    1
    79    36    80    1
    80    36    81    1
    81    37    41    1
    82    38    82    1
    83    38    83    1
    84    38    84    1
    85    39    85    1
    86    39    86    1
    87    39    87    1
    88    40    88    1
    89    40    89    1
    90    40    90    1
    91    41    42   ar
    92    41    43   ar
    93    42    44   ar
    94    42    91    1
    95    43    45   ar
    96    43    92    1
    97    44    46   ar
    98    45    46   ar
    99    45    93    1
   100    47    94    1
   101    47    95    1
   102    47    96    1
   103    48    97    1
   104    48    98    1
   105    48    99    1
