@<TRIPOS>MOLECULE
IMPHY002648
 71 76 0 0 0
SMALL
GASTEIGER

@<TRIPOS>ATOM
      1 O           2.0000    2.7762    0.0000 O.3     1  UNL1       -0.3649
      2 O           2.8665    4.2762    0.0000 O.3     1  UNL1       -0.3846
      3 O           6.3688    3.2731    0.0000 O.2     1  UNL1       -0.2920
      4 O           5.3950   -3.2506    0.0000 O.3     1  UNL1       -0.4575
      5 O           5.7391   -4.9481    0.0000 O.2     1  UNL1       -0.2453
      6 C           3.7326    1.7762    0.0000 C.3     1  UNL1       -0.0050
      7 C           3.7165    0.7347    0.0000 C.3     1  UNL1       -0.0298
      8 C           4.5986    2.2762    0.0000 C.3     1  UNL1       -0.0203
      9 C           4.6145    0.2069    0.0000 C.3     1  UNL1       -0.0257
     10 C           2.8665    2.2762    0.0000 C.3     1  UNL1        0.0914
     11 C           2.8665    3.2762    0.0000 C.3     1  UNL1        0.1153
     12 C           4.5986    3.2762    0.0000 C.3     1  UNL1        0.0647
     13 C           3.7326    3.7762    0.0000 C.3     1  UNL1        0.1104
     14 C           4.3888   -0.8036    0.0000 C.3     1  UNL1       -0.0294
     15 C           5.5086    1.7693    0.0000 C.3     1  UNL1       -0.0484
     16 C           5.5166    0.7277    0.0000 C.3     1  UNL1       -0.0468
     17 C           2.9435    0.0458    0.0000 C.3     1  UNL1       -0.0491
     18 C           3.3582   -0.9030    0.0000 C.3     1  UNL1       -0.0491
     19 C           5.4767   -0.2997    0.0000 C.3     1  UNL1       -0.0590
     20 C           3.7165    4.8177    0.0000 C.3     1  UNL1       -0.0019
     21 C           5.0509   -1.5531    0.0000 C.3     1  UNL1       -0.0030
     22 C           5.4646    2.7762    0.0000 C.3     1  UNL1       -0.0495
     23 C           5.5086    3.7830    0.0000 C.2     1  UNL1        0.1647
     24 C           4.6145    5.3454    0.0000 C.2     1  UNL1       -0.0779
     25 C           4.7329   -2.5012    0.0000 C.3     1  UNL1        0.1099
     26 C           5.5166    4.8246    0.0000 C.2     1  UNL1       -0.0224
     27 C           6.0310   -1.3544    0.0000 C.3     1  UNL1       -0.0588
     28 C           3.7529   -2.6998    0.0000 C.3     1  UNL1        0.0063
     29 C           3.4349   -3.6479    0.0000 C.2     1  UNL1       -0.0595
     30 C           5.0770   -4.1987    0.0000 C.2     1  UNL1        0.3351
     31 C           4.0970   -4.3974    0.0000 C.2     1  UNL1        0.0326
     32 C           2.4548   -3.8466    0.0000 C.3     1  UNL1       -0.0429
     33 C           3.7790   -5.3454    0.0000 C.3     1  UNL1       -0.0330
     34 H           2.9932    1.3569    0.0000 H       1  UNL1        0.0332
     35 H           2.9436    1.0884    0.0000 H       1  UNL1        0.0310
     36 H           5.3314    2.7069    0.0000 H       1  UNL1        0.0315
     37 H           2.5566    1.7392    0.0000 H       1  UNL1        0.0626
     38 H           2.5566    3.8132    0.0000 H       1  UNL1        0.0651
     39 H           4.0771   -1.5944    0.0000 H       1  UNL1        0.0310
     40 H           6.1202    1.6680    0.0000 H       1  UNL1        0.0268
     41 H           5.7131    2.3546    0.0000 H       1  UNL1        0.0268
     42 H           5.7302    0.1457    0.0000 H       1  UNL1        0.0271
     43 H           6.1266    0.8385    0.0000 H       1  UNL1        0.0271
     44 H           2.5819    0.5494    0.0000 H       1  UNL1        0.0268
     45 H           2.4046   -0.2609    0.0000 H       1  UNL1        0.0268
     46 H           2.7671   -1.0902    0.0000 H       1  UNL1        0.0268
     47 H           3.4822   -1.5105    0.0000 H       1  UNL1        0.0268
     48 H           5.1626   -0.8343    0.0000 H       1  UNL1        0.0235
     49 H           6.0112   -0.6139    0.0000 H       1  UNL1        0.0235
     50 H           5.7908    0.2348    0.0000 H       1  UNL1        0.0235
     51 H           3.4985    5.3981    0.0000 H       1  UNL1        0.0336
     52 H           3.1074    4.7022    0.0000 H       1  UNL1        0.0336
     53 H           5.2481   -0.9652    0.0000 H       1  UNL1        0.0337
     54 H           5.1546    2.2393    0.0000 H       1  UNL1        0.0240
     55 H           6.0016    2.4662    0.0000 H       1  UNL1        0.0240
     56 H           5.7746    3.3131    0.0000 H       1  UNL1        0.0240
     57 H           2.8665    4.8962    0.0000 H       1  UNL1        0.2103
     58 H           4.6122    5.9654    0.0000 H       1  UNL1        0.0574
     59 H           5.5660   -2.3323    0.0000 H       1  UNL1        0.0740
     60 H           6.0548    5.1326    0.0000 H       1  UNL1        0.0649
     61 H           6.1542   -1.9620    0.0000 H       1  UNL1        0.0234
     62 H           6.6386   -1.2312    0.0000 H       1  UNL1        0.0234
     63 H           5.9078   -0.7468    0.0000 H       1  UNL1        0.0234
     64 H           3.7371   -2.0800    0.0000 H       1  UNL1        0.0346
     65 H           3.1397   -2.6077    0.0000 H       1  UNL1        0.0346
     66 H           2.3316   -3.2390    0.0000 H       1  UNL1        0.0275
     67 H           1.8472   -3.9698    0.0000 H       1  UNL1        0.0275
     68 H           2.5780   -4.4542    0.0000 H       1  UNL1        0.0275
     69 H           3.1912   -5.1483    0.0000 H       1  UNL1        0.0280
     70 H           3.5818   -5.9333    0.0000 H       1  UNL1        0.0280
     71 H           4.3668   -5.5426    0.0000 H       1  UNL1        0.0280
@<TRIPOS>BOND
     1    10     1    1
     2    11     1    1
     3    13     2    1
     4     2    57    1
     5     3    23    2
     6     4    25    1
     7     4    30    1
     8     5    30    2
     9     6     7    1
    10     6     8    1
    11     6    10    1
    12     6    34    1
    13     7     9    1
    14     7    17    1
    15     7    35    1
    16     8    12    1
    17     8    15    1
    18     8    36    1
    19     9    14    1
    20     9    16    1
    21     9    19    1
    22    10    11    1
    23    10    37    1
    24    11    13    1
    25    11    38    1
    26    12    13    1
    27    12    22    1
    28    12    23    1
    29    13    20    1
    30    14    18    1
    31    14    21    1
    32    14    39    1
    33    15    16    1
    34    15    40    1
    35    15    41    1
    36    16    42    1
    37    16    43    1
    38    17    18    1
    39    17    44    1
    40    17    45    1
    41    18    46    1
    42    18    47    1
    43    19    48    1
    44    19    49    1
    45    19    50    1
    46    20    24    1
    47    20    51    1
    48    20    52    1
    49    21    25    1
    50    21    27    1
    51    21    53    1
    52    22    54    1
    53    22    55    1
    54    22    56    1
    55    23    26    1
    56    24    26    2
    57    24    58    1
    58    25    28    1
    59    25    59    1
    60    26    60    1
    61    27    61    1
    62    27    62    1
    63    27    63    1
    64    28    29    1
    65    28    64    1
    66    28    65    1
    67    29    31    2
    68    29    32    1
    69    30    31    1
    70    31    33    1
    71    32    66    1
    72    32    67    1
    73    32    68    1
    74    33    69    1
    75    33    70    1
    76    33    71    1
