@<TRIPOS>MOLECULE
IMPHY005928
 25 25 0 0 0
SMALL
GASTEIGER

@<TRIPOS>ATOM
      1 O           2.5369    0.5670    0.0000 O.3     1  UNL1       -0.3870
      2 O           6.0010   -1.4330    0.0000 O.2     1  UNL1       -0.2927
      3 C           4.2690    0.5670    0.0000 C.3     1  UNL1        0.0019
      4 C           3.4030    0.0670    0.0000 C.3     1  UNL1        0.0819
      5 C           5.1350    0.0670    0.0000 C.3     1  UNL1        0.0177
      6 C           4.7690    1.4330    0.0000 C.3     1  UNL1       -0.0568
      7 C           3.7690    1.4330    0.0000 C.3     1  UNL1       -0.0568
      8 C           3.4030   -0.9330    0.0000 C.2     1  UNL1       -0.0407
      9 C           5.1350   -0.9330    0.0000 C.2     1  UNL1        0.1567
     10 C           4.2690   -1.4330    0.0000 C.2     1  UNL1       -0.0178
     11 C           2.5369   -1.4330    0.0000 C.3     1  UNL1       -0.0410
     12 H           3.4030    0.6870    0.0000 H       1  UNL1        0.0646
     13 H           5.7456   -0.0407    0.0000 H       1  UNL1        0.0351
     14 H           5.3471    0.6496    0.0000 H       1  UNL1        0.0351
     15 H           4.3059    1.7430    0.0000 H       1  UNL1        0.0236
     16 H           3.4590    1.9700    0.0000 H       1  UNL1        0.0236
     17 H           3.2320    1.1230    0.0000 H       1  UNL1        0.0236
     18 H           5.3059    1.1230    0.0000 H       1  UNL1        0.0236
     19 H           5.0790    1.9700    0.0000 H       1  UNL1        0.0236
     20 H           4.2320    1.7430    0.0000 H       1  UNL1        0.0236
     21 H           4.2690   -2.0530    0.0000 H       1  UNL1        0.0653
     22 H           2.2269   -0.8961    0.0000 H       1  UNL1        0.0275
     23 H           2.0000   -1.7430    0.0000 H       1  UNL1        0.0275
     24 H           2.8469   -1.9700    0.0000 H       1  UNL1        0.0275
     25 H           2.0000    0.2570    0.0000 H       1  UNL1        0.2102
@<TRIPOS>BOND
     1     1     4    1
     2     1    25    1
     3     2     9    2
     4     3     4    1
     5     3     5    1
     6     3     6    1
     7     3     7    1
     8     4     8    1
     9     4    12    1
    10     5     9    1
    11     5    13    1
    12     5    14    1
    13     6    18    1
    14     6    19    1
    15     6    20    1
    16     7    15    1
    17     7    16    1
    18     7    17    1
    19     8    10    2
    20     8    11    1
    21     9    10    1
    22    10    21    1
    23    11    22    1
    24    11    23    1
    25    11    24    1
