@<TRIPOS>MOLECULE
IMPHY016202
 26 28 0 0 0
SMALL
GASTEIGER

@<TRIPOS>ATOM
      1 O           8.1962    0.5415    0.0000 O.2     1  UNL1       -0.2878
      2 N           4.6660    0.5173    0.0000 N.ar    1  UNL1       -0.3405
      3 N           4.6660   -1.4827    0.0000 N.ar    1  UNL1       -0.2437
      4 C           5.5321    0.0173    0.0000 C.ar    1  UNL1        0.0714
      5 C           3.8000    0.0173    0.0000 C.ar    1  UNL1        0.0677
      6 C           5.5321   -0.9827    0.0000 C.ar    1  UNL1        0.0882
      7 C           3.8000   -0.9827    0.0000 C.ar    1  UNL1        0.0880
      8 C           4.6660    1.5173    0.0000 C.3     1  UNL1        0.0125
      9 C           6.4260    0.5520    0.0000 C.ar    1  UNL1        0.0107
     10 C           2.9061    0.5520    0.0000 C.ar    1  UNL1       -0.0361
     11 C           6.4260   -1.5173    0.0000 C.ar    1  UNL1       -0.0307
     12 C           2.9061   -1.5173    0.0000 C.ar    1  UNL1       -0.0343
     13 C           7.3321    0.0381    0.0000 C.ar    1  UNL1        0.1811
     14 C           2.0000    0.0381    0.0000 C.ar    1  UNL1       -0.0597
     15 C           7.3321   -1.0035    0.0000 C.ar    1  UNL1       -0.0128
     16 C           2.0000   -1.0035    0.0000 C.ar    1  UNL1       -0.0596
     17 H           5.2860    1.5173    0.0000 H       1  UNL1        0.0456
     18 H           4.6660    2.1373    0.0000 H       1  UNL1        0.0456
     19 H           4.0460    1.5173    0.0000 H       1  UNL1        0.0456
     20 H           6.4188    1.1720    0.0000 H       1  UNL1        0.0677
     21 H           2.9132    1.1720    0.0000 H       1  UNL1        0.0639
     22 H           6.4188   -2.1373    0.0000 H       1  UNL1        0.0641
     23 H           2.9132   -2.1373    0.0000 H       1  UNL1        0.0639
     24 H           1.4643    0.3502    0.0000 H       1  UNL1        0.0618
     25 H           7.8678   -1.3156    0.0000 H       1  UNL1        0.0656
     26 H           1.4643   -1.3156    0.0000 H       1  UNL1        0.0618
@<TRIPOS>BOND
     1     1    13    2
     2     2     4   ar
     3     2     5   ar
     4     2     8    1
     5     3     6   ar
     6     3     7   ar
     7     4     6    1
     8     4     9   ar
     9     5     7   ar
    10     5    10   ar
    11     6    11   ar
    12     7    12   ar
    13     8    17    1
    14     8    18    1
    15     8    19    1
    16     9    13   ar
    17     9    20    1
    18    10    14   ar
    19    10    21    1
    20    11    15   ar
    21    11    22    1
    22    12    16   ar
    23    12    23    1
    24    13    15   ar
    25    14    16   ar
    26    14    24    1
    27    15    25    1
    28    16    26    1
