@<TRIPOS>MOLECULE
IMPHY007078
 114 121 0 0 0
SMALL
GASTEIGER

@<TRIPOS>ATOM
      1 O           4.5981   -0.8249    0.0000 O.3     1  UNL1       -0.3401
      2 O           4.5981   -4.8249    0.0000 O.3     1  UNL1       -0.3405
      3 O           5.4641   -2.3249    0.0000 O.3     1  UNL1       -0.3460
      4 O           6.3776   -4.9182    0.0000 O.3     1  UNL1       -0.3405
      5 O           6.3301    1.1751    0.0000 O.3     1  UNL1       -0.3313
      6 O           2.8660   -3.8249    0.0000 O.3     1  UNL1       -0.3744
      7 O           2.8660   -1.8249    0.0000 O.3     1  UNL1       -0.3721
      8 O           4.8255   -6.9886    0.0000 O.3     1  UNL1       -0.3721
      9 O           6.9535   -7.4409    0.0000 O.3     1  UNL1       -0.3744
     10 O           6.3301   -1.8249    0.0000 O.3     1  UNL1       -0.3863
     11 O           8.0622    1.1751    0.0000 O.3     1  UNL1       -0.4598
     12 O           8.0622   -0.8249    0.0000 O.3     1  UNL1       -0.3829
     13 O           8.6291   -6.3658    0.0000 O.3     1  UNL1       -0.3803
     14 O           3.7320    0.6751    0.0000 O.3     1  UNL1       -0.3924
     15 O           5.6663    3.1751    0.0000 O.3     1  UNL1       -0.4562
     16 O           5.9393    4.9303    0.0000 O.2     1  UNL1       -0.2449
     17 O          11.5923    2.1509    0.0000 O.3     1  UNL1       -0.4914
     18 O          11.5923    4.1992    0.0000 O.3     1  UNL1       -0.4914
     19 O           9.6652    7.3422    0.0000 O.3     1  UNL1       -0.4526
     20 O           8.2714    8.1469    0.0000 O.3     1  UNL1       -0.4526
     21 C           4.5981   -3.8249    0.0000 C.3     1  UNL1        0.1137
     22 C           3.7320   -3.3249    0.0000 C.3     1  UNL1        0.1174
     23 C           3.7320   -2.3249    0.0000 C.3     1  UNL1        0.1374
     24 C           5.4641   -0.3249    0.0000 C.3     1  UNL1        0.1185
     25 C           4.5981   -1.8249    0.0000 C.3     1  UNL1        0.1883
     26 C           5.4641   -5.3249    0.0000 C.3     1  UNL1        0.1887
     27 C           5.5686   -6.3195    0.0000 C.3     1  UNL1        0.1374
     28 C           6.3301   -0.8249    0.0000 C.3     1  UNL1        0.1155
     29 C           6.5468   -6.5274    0.0000 C.3     1  UNL1        0.1174
     30 C           5.4641    0.6751    0.0000 C.3     1  UNL1        0.1144
     31 C           5.4641   -3.3249    0.0000 C.3     1  UNL1        0.0796
     32 C           7.0468   -5.6614    0.0000 C.3     1  UNL1        0.1136
     33 C           7.1962   -0.3249    0.0000 C.3     1  UNL1        0.1454
     34 C           7.1962    0.6751    0.0000 C.3     1  UNL1        0.2308
     35 C           4.5981    1.1751    0.0000 C.3     1  UNL1        0.0731
     36 C           8.0413   -5.5568    0.0000 C.3     1  UNL1        0.0761
     37 C           8.0622    2.1751    0.0000 C.ar    1  UNL1        0.1390
     38 C           2.8660   -4.8249    0.0000 C.3     1  UNL1        0.0370
     39 C           2.0000   -2.3249    0.0000 C.3     1  UNL1        0.0371
     40 C           5.0334   -7.9667    0.0000 C.3     1  UNL1        0.0371
     41 C           6.3657   -8.2499    0.0000 C.3     1  UNL1        0.0370
     42 C           7.1962    2.6751    0.0000 C.ar    1  UNL1        0.0466
     43 C           8.9282    2.6751    0.0000 C.ar    1  UNL1        0.0286
     44 C           7.1962    3.6751    0.0000 C.ar    1  UNL1        0.0772
     45 C           8.9282    3.6751    0.0000 C.ar    1  UNL1       -0.0022
     46 C           8.0622    4.1751    0.0000 C.ar    1  UNL1        0.0046
     47 C           6.2499    2.3703    0.0000 C.3     1  UNL1        0.1220
     48 C           9.6236   -6.2613    0.0000 C.3     1  UNL1        0.0366
     49 C           9.8222    2.1404    0.0000 C.ar    1  UNL1       -0.0051
     50 C           6.2499    3.9798    0.0000 C.2     1  UNL1        0.3406
     51 C           9.8222    4.2097    0.0000 C.ar    1  UNL1       -0.0079
     52 C           8.0622    5.1751    0.0000 C.ar    1  UNL1       -0.0128
     53 C          10.7282    2.6543    0.0000 C.ar    1  UNL1        0.1622
     54 C          10.7282    3.6959    0.0000 C.ar    1  UNL1        0.1621
     55 C           8.9282    5.6751    0.0000 C.ar    1  UNL1       -0.0084
     56 C           7.1962    5.6751    0.0000 C.ar    1  UNL1       -0.0503
     57 C           8.9282    6.6751    0.0000 C.ar    1  UNL1        0.1668
     58 C           7.1962    6.6751    0.0000 C.ar    1  UNL1       -0.0156
     59 C           8.0622    7.1751    0.0000 C.ar    1  UNL1        0.1663
     60 C          11.5884    1.1509    0.0000 C.3     1  UNL1        0.0790
     61 C           9.2601    8.2499    0.0000 C.3     1  UNL1        0.2332
     62 C          12.4602    3.7026    0.0000 C.3     1  UNL1        0.0790
     63 H           5.1350   -4.1349    0.0000 H       1  UNL1        0.0647
     64 H           3.7320   -3.9449    0.0000 H       1  UNL1        0.0650
     65 H           3.7320   -1.7049    0.0000 H       1  UNL1        0.0674
     66 H           5.4641   -0.9449    0.0000 H       1  UNL1        0.0651
     67 H           5.1350   -1.5149    0.0000 H       1  UNL1        0.0937
     68 H           4.9441   -5.6626    0.0000 H       1  UNL1        0.0938
     69 H           5.7291   -6.9183    0.0000 H       1  UNL1        0.0674
     70 H           6.8671   -1.1349    0.0000 H       1  UNL1        0.0648
     71 H           6.1566   -7.0092    0.0000 H       1  UNL1        0.0650
     72 H           5.4641    1.2951    0.0000 H       1  UNL1        0.0647
     73 H           5.6762   -3.9076    0.0000 H       1  UNL1        0.0587
     74 H           6.0747   -3.2173    0.0000 H       1  UNL1        0.0587
     75 H           7.2690   -5.0825    0.0000 H       1  UNL1        0.0647
     76 H           7.7331   -0.0149    0.0000 H       1  UNL1        0.0683
     77 H           7.1962    1.2951    0.0000 H       1  UNL1        0.1084
     78 H           4.9966    1.6500    0.0000 H       1  UNL1        0.0584
     79 H           4.1996    1.6500    0.0000 H       1  UNL1        0.0584
     80 H           8.5986   -5.2850    0.0000 H       1  UNL1        0.0586
     81 H           7.8704   -4.9608    0.0000 H       1  UNL1        0.0586
     82 H           6.8671   -2.1349    0.0000 H       1  UNL1        0.2100
     83 H           8.5991   -0.5149    0.0000 H       1  UNL1        0.2102
     84 H           2.2460   -4.8249    0.0000 H       1  UNL1        0.0524
     85 H           2.8660   -5.4449    0.0000 H       1  UNL1        0.0524
     86 H           3.4860   -4.8249    0.0000 H       1  UNL1        0.0524
     87 H           1.6900   -1.7880    0.0000 H       1  UNL1        0.0524
     88 H           1.4631   -2.6349    0.0000 H       1  UNL1        0.0524
     89 H           2.3100   -2.8619    0.0000 H       1  UNL1        0.0524
     90 H           4.4270   -8.0956    0.0000 H       1  UNL1        0.0524
     91 H           5.1623   -8.5732    0.0000 H       1  UNL1        0.0524
     92 H           5.6398   -7.8378    0.0000 H       1  UNL1        0.0524
     93 H           5.8641   -7.8855    0.0000 H       1  UNL1        0.0524
     94 H           6.0013   -8.7515    0.0000 H       1  UNL1        0.0524
     95 H           6.8673   -8.6144    0.0000 H       1  UNL1        0.0524
     96 H           3.1951    0.9851    0.0000 H       1  UNL1        0.2095
     97 H           5.7126    2.0611    0.0000 H       1  UNL1        0.0750
     98 H           6.5010    1.8034    0.0000 H       1  UNL1        0.0750
     99 H           9.6884   -6.8779    0.0000 H       1  UNL1        0.0524
    100 H          10.2402   -6.1965    0.0000 H       1  UNL1        0.0524
    101 H           9.5588   -5.6447    0.0000 H       1  UNL1        0.0524
    102 H           9.8150    1.5204    0.0000 H       1  UNL1        0.0662
    103 H           9.8150    4.8297    0.0000 H       1  UNL1        0.0662
    104 H           9.4651    5.3651    0.0000 H       1  UNL1        0.0661
    105 H           6.6592    5.3651    0.0000 H       1  UNL1        0.0625
    106 H           6.6592    6.9851    0.0000 H       1  UNL1        0.0655
    107 H          10.9685    1.1533    0.0000 H       1  UNL1        0.0660
    108 H          11.5861    0.5309    0.0000 H       1  UNL1        0.0660
    109 H          12.2084    1.1485    0.0000 H       1  UNL1        0.0660
    110 H           9.8497    8.4417    0.0000 H       1  UNL1        0.1166
    111 H           9.1314    8.8564    0.0000 H       1  UNL1        0.1166
    112 H          12.1523    3.1644    0.0000 H       1  UNL1        0.0660
    113 H          12.9984    3.3946    0.0000 H       1  UNL1        0.0660
    114 H          12.7682    4.2407    0.0000 H       1  UNL1        0.0660
@<TRIPOS>BOND
     1    24     1    1
     2    25     1    1
     3    21     2    1
     4    26     2    1
     5     3    25    1
     6     3    31    1
     7     4    26    1
     8     4    32    1
     9     5    30    1
    10     5    34    1
    11    22     6    1
    12     6    38    1
    13    23     7    1
    14     7    39    1
    15    27     8    1
    16     8    40    1
    17    29     9    1
    18     9    41    1
    19    28    10    1
    20    10    82    1
    21    34    11    1
    22    11    37    1
    23    33    12    1
    24    12    83    1
    25    13    36    1
    26    13    48    1
    27    14    35    1
    28    14    96    1
    29    15    47    1
    30    15    50    1
    31    16    50    2
    32    17    53    1
    33    17    60    1
    34    18    54    1
    35    18    62    1
    36    19    57    1
    37    19    61    1
    38    20    59    1
    39    20    61    1
    40    21    22    1
    41    21    31    1
    42    21    63    1
    43    22    23    1
    44    22    64    1
    45    23    25    1
    46    23    65    1
    47    24    28    1
    48    24    30    1
    49    24    66    1
    50    25    67    1
    51    26    27    1
    52    26    68    1
    53    27    29    1
    54    27    69    1
    55    28    33    1
    56    28    70    1
    57    29    32    1
    58    29    71    1
    59    30    35    1
    60    30    72    1
    61    31    73    1
    62    31    74    1
    63    32    36    1
    64    32    75    1
    65    33    34    1
    66    33    76    1
    67    34    77    1
    68    35    78    1
    69    35    79    1
    70    36    80    1
    71    36    81    1
    72    37    42   ar
    73    37    43   ar
    74    38    84    1
    75    38    85    1
    76    38    86    1
    77    39    87    1
    78    39    88    1
    79    39    89    1
    80    40    90    1
    81    40    91    1
    82    40    92    1
    83    41    93    1
    84    41    94    1
    85    41    95    1
    86    42    44   ar
    87    42    47    1
    88    43    45   ar
    89    43    49   ar
    90    44    46   ar
    91    44    50    1
    92    45    46   ar
    93    45    51   ar
    94    46    52    1
    95    47    97    1
    96    47    98    1
    97    48    99    1
    98    48   100    1
    99    48   101    1
   100    49    53   ar
   101    49   102    1
   102    51    54   ar
   103    51   103    1
   104    52    55   ar
   105    52    56   ar
   106    53    54   ar
   107    55    57   ar
   108    55   104    1
   109    56    58   ar
   110    56   105    1
   111    57    59   ar
   112    58    59   ar
   113    58   106    1
   114    60   107    1
   115    60   108    1
   116    60   109    1
   117    61   110    1
   118    61   111    1
   119    62   112    1
   120    62   113    1
   121    62   114    1
