@<TRIPOS>MOLECULE
IMPHY013177
 54 57 0 0 0
SMALL
GASTEIGER

@<TRIPOS>ATOM
      1 O           5.4641   -1.6725    0.0000 O.3     1  UNL1       -0.3221
      2 O           7.1962   -1.6725    0.0000 O.3     1  UNL1       -0.4569
      3 O           5.4641   -4.6725    0.0000 O.3     1  UNL1       -0.3863
      4 O           3.7320   -3.6725    0.0000 O.3     1  UNL1       -0.3860
      5 O           7.1962   -3.6725    0.0000 O.3     1  UNL1       -0.3829
      6 O           2.8660   -2.1725    0.0000 O.3     1  UNL1       -0.4661
      7 O           3.7320   -0.6725    0.0000 O.2     1  UNL1       -0.2478
      8 O           8.9722    1.3343    0.0000 O.2     1  UNL1       -0.4544
      9 O           5.4641   -0.6725    0.0000 O.3     1  UNL1       -0.5009
     10 O           5.4641    1.3275    0.0000 O.3     1  UNL1       -0.5027
     11 O           6.3083    2.8589    0.0000 O.2     1  UNL1       -0.2869
     12 O          12.4520    4.3625    0.0000 O.3     1  UNL1       -0.5068
     13 C           5.4641   -3.6725    0.0000 C.3     1  UNL1        0.1157
     14 C           4.5981   -3.1725    0.0000 C.3     1  UNL1        0.1202
     15 C           6.3301   -3.1725    0.0000 C.3     1  UNL1        0.1455
     16 C           4.5981   -2.1725    0.0000 C.3     1  UNL1        0.1871
     17 C           6.3301   -2.1725    0.0000 C.3     1  UNL1        0.2314
     18 C           3.7320   -1.6725    0.0000 C.2     1  UNL1        0.3388
     19 C           7.1962   -0.6725    0.0000 C.ar    1  UNL1        0.1724
     20 C           8.0622   -0.1725    0.0000 C.ar    1  UNL1        0.0271
     21 C           6.3301   -0.1725    0.0000 C.ar    1  UNL1        0.2019
     22 C           8.0622    0.8275    0.0000 C.ar    1  UNL1        0.1465
     23 C           7.1962    1.3275    0.0000 C.ar    1  UNL1        0.1091
     24 C           6.3301    0.8275    0.0000 C.ar    1  UNL1        0.1766
     25 C           7.1801    2.3690    0.0000 C.ar    1  UNL1        0.1967
     26 C           2.0000   -1.6725    0.0000 C.3     1  UNL1        0.0817
     27 C           8.9802    2.3759    0.0000 C.ar    1  UNL1        0.1392
     28 C           8.0781    2.8967    0.0000 C.ar    1  UNL1        0.0288
     29 C           9.8482    2.8726    0.0000 C.ar    1  UNL1        0.0176
     30 C           9.8520    3.8726    0.0000 C.ar    1  UNL1       -0.0476
     31 C          10.7122    2.3692    0.0000 C.ar    1  UNL1       -0.0476
     32 C          10.7200    4.3692    0.0000 C.ar    1  UNL1       -0.0195
     33 C          11.5802    2.8659    0.0000 C.ar    1  UNL1       -0.0195
     34 C          11.5840    3.8659    0.0000 C.ar    1  UNL1        0.1169
     35 H           4.9272   -3.9825    0.0000 H       1  UNL1        0.0648
     36 H           4.0611   -2.8625    0.0000 H       1  UNL1        0.0652
     37 H           6.3301   -3.7925    0.0000 H       1  UNL1        0.0683
     38 H           4.5981   -1.5525    0.0000 H       1  UNL1        0.0742
     39 H           6.3301   -1.5525    0.0000 H       1  UNL1        0.1084
     40 H           6.0010   -4.9825    0.0000 H       1  UNL1        0.2100
     41 H           3.7320   -4.2925    0.0000 H       1  UNL1        0.2100
     42 H           7.7331   -3.3625    0.0000 H       1  UNL1        0.2102
     43 H           8.5991   -0.4825    0.0000 H       1  UNL1        0.0692
     44 H           2.3100   -1.1356    0.0000 H       1  UNL1        0.0661
     45 H           1.4631   -1.3625    0.0000 H       1  UNL1        0.0661
     46 H           1.6900   -2.2095    0.0000 H       1  UNL1        0.0661
     47 H           8.0757    3.5167    0.0000 H       1  UNL1        0.0693
     48 H           4.9272   -0.3625    0.0000 H       1  UNL1        0.2924
     49 H           4.9272    1.0175    0.0000 H       1  UNL1        0.2923
     50 H           9.3163    4.1846    0.0000 H       1  UNL1        0.0626
     51 H          10.7099    1.7492    0.0000 H       1  UNL1        0.0626
     52 H          10.7223    4.9892    0.0000 H       1  UNL1        0.0654
     53 H          12.1159    2.5538    0.0000 H       1  UNL1        0.0654
     54 H          12.4544    4.9825    0.0000 H       1  UNL1        0.2921
@<TRIPOS>BOND
     1     1    16    1
     2     1    17    1
     3     2    17    1
     4     2    19    1
     5     3    13    1
     6     3    40    1
     7     4    14    1
     8     4    41    1
     9     5    15    1
    10     5    42    1
    11     6    18    1
    12     6    26    1
    13     7    18    2
    14     8    22   ar
    15     8    27   ar
    16     9    21    1
    17     9    48    1
    18    10    24    1
    19    10    49    1
    20    11    25    2
    21    12    34    1
    22    12    54    1
    23    13    14    1
    24    13    15    1
    25    13    35    1
    26    14    16    1
    27    14    36    1
    28    15    17    1
    29    15    37    1
    30    16    18    1
    31    16    38    1
    32    17    39    1
    33    19    20   ar
    34    19    21   ar
    35    20    22   ar
    36    20    43    1
    37    21    24   ar
    38    22    23   ar
    39    23    24   ar
    40    23    25   ar
    41    25    28   ar
    42    26    44    1
    43    26    45    1
    44    26    46    1
    45    27    28   ar
    46    27    29    1
    47    28    47    1
    48    29    30   ar
    49    29    31   ar
    50    30    32   ar
    51    30    50    1
    52    31    33   ar
    53    31    51    1
    54    32    34   ar
    55    32    52    1
    56    33    34   ar
    57    33    53    1
