@<TRIPOS>MOLECULE
IMPHY002132
 57 61 0 0 0
SMALL
GASTEIGER

@<TRIPOS>ATOM
      1 N           8.7220    2.3457    0.0000 N.3     1  UNL1       -0.3127
      2 N           2.5357   -2.3457    0.0000 N.3     1  UNL1       -0.3270
      3 C           7.9288    0.7066    0.0000 C.3     1  UNL1       -0.0094
      4 C           7.9288   -0.2934    0.0000 C.3     1  UNL1       -0.0305
      5 C           8.8750    1.0114    0.0000 C.3     1  UNL1       -0.0188
      6 C           7.0628   -0.7934    0.0000 C.3     1  UNL1       -0.0306
      7 C           6.1968   -0.2934    0.0000 C.3     1  UNL1       -0.0285
      8 C           7.0628    1.2066    0.0000 C.3     1  UNL1       -0.0454
      9 C           8.8750   -0.5981    0.0000 C.3     1  UNL1       -0.0491
     10 C           9.4586    0.2066    0.0000 C.3     1  UNL1       -0.0480
     11 C           7.8306    1.6899    0.0000 C.3     1  UNL1        0.0024
     12 C           6.1968    0.7066    0.0000 C.3     1  UNL1       -0.0486
     13 C           5.2868   -0.8002    0.0000 C.3     1  UNL1       -0.0079
     14 C           9.3691    1.8672    0.0000 C.3     1  UNL1        0.0082
     15 C           7.0789   -1.8349    0.0000 C.3     1  UNL1       -0.0311
     16 C           5.2787   -1.8418    0.0000 C.2     1  UNL1       -0.0658
     17 C           4.3599   -0.2361    0.0000 C.3     1  UNL1       -0.0422
     18 C           6.1808   -2.3626    0.0000 C.2     1  UNL1       -0.0839
     19 C           5.2945    0.1997    0.0000 C.3     1  UNL1       -0.0556
     20 C          10.3205    2.1754    0.0000 C.3     1  UNL1       -0.0494
     21 C           4.3433   -2.3916    0.0000 C.3     1  UNL1       -0.0160
     22 C           3.4120   -0.7641    0.0000 C.3     1  UNL1       -0.0367
     23 C           3.4037   -1.8490    0.0000 C.3     1  UNL1        0.0086
     24 H           8.0188   -1.1386    0.0000 H       1  UNL1        0.0309
     25 H           9.7239    1.0555    0.0000 H       1  UNL1        0.0322
     26 H           7.8022   -1.2127    0.0000 H       1  UNL1        0.0309
     27 H           6.9329    0.1316    0.0000 H       1  UNL1        0.0312
     28 H           7.4613    1.6816    0.0000 H       1  UNL1        0.0271
     29 H           6.6643    1.6816    0.0000 H       1  UNL1        0.0271
     30 H           8.6240   -1.1650    0.0000 H       1  UNL1        0.0268
     31 H           9.4124   -0.9073    0.0000 H       1  UNL1        0.0268
     32 H           9.9195   -0.2081    0.0000 H       1  UNL1        0.0269
     33 H           9.9195    0.6214    0.0000 H       1  UNL1        0.0269
     34 H           7.5576    2.2466    0.0000 H       1  UNL1        0.0430
     35 H           7.2344    1.5199    0.0000 H       1  UNL1        0.0430
     36 H           5.9847    1.2892    0.0000 H       1  UNL1        0.0268
     37 H           5.5862    0.5990    0.0000 H       1  UNL1        0.0268
     38 H           9.4690    2.4791    0.0000 H       1  UNL1        0.0460
     39 H           7.2969   -2.4153    0.0000 H       1  UNL1        0.0310
     40 H           7.6880   -1.7194    0.0000 H       1  UNL1        0.0310
     41 H           8.7236    2.9657    0.0000 H       1  UNL1        0.1222
     42 H           4.7681    0.2305    0.0000 H       1  UNL1        0.0274
     43 H           3.9700    0.2459    0.0000 H       1  UNL1        0.0274
     44 H           6.1832   -2.9826    0.0000 H       1  UNL1        0.0572
     45 H           5.9145    0.1950    0.0000 H       1  UNL1        0.0238
     46 H           5.2993    0.8197    0.0000 H       1  UNL1        0.0238
     47 H           4.6745    0.2045    0.0000 H       1  UNL1        0.0238
     48 H          10.5115    1.5855    0.0000 H       1  UNL1        0.0245
     49 H          10.9103    2.3664    0.0000 H       1  UNL1        0.0245
     50 H          10.1294    2.7652    0.0000 H       1  UNL1        0.0245
     51 H           3.9460   -2.8675    0.0000 H       1  UNL1        0.0325
     52 H           4.7443   -2.8644    0.0000 H       1  UNL1        0.0325
     53 H           3.2075   -0.1788    0.0000 H       1  UNL1        0.0281
     54 H           2.8004   -0.8655    0.0000 H       1  UNL1        0.0281
     55 H           2.8686   -1.5360    0.0000 H       1  UNL1        0.0461
     56 H           2.0000   -2.0336    0.0000 H       1  UNL1        0.1185
     57 H           2.5334   -2.9657    0.0000 H       1  UNL1        0.1185
@<TRIPOS>BOND
     1     1    11    1
     2     1    14    1
     3     1    41    1
     4    23     2    1
     5     2    56    1
     6     2    57    1
     7     3     4    1
     8     3     5    1
     9     3     8    1
    10     3    11    1
    11     4     6    1
    12     4     9    1
    13     4    24    1
    14     5    10    1
    15     5    14    1
    16     5    25    1
    17     6     7    1
    18     6    15    1
    19     6    26    1
    20     7    12    1
    21     7    13    1
    22     7    27    1
    23     8    12    1
    24     8    28    1
    25     8    29    1
    26     9    10    1
    27     9    30    1
    28     9    31    1
    29    10    32    1
    30    10    33    1
    31    11    34    1
    32    11    35    1
    33    12    36    1
    34    12    37    1
    35    13    16    1
    36    13    17    1
    37    13    19    1
    38    14    20    1
    39    14    38    1
    40    15    18    1
    41    15    39    1
    42    15    40    1
    43    16    18    2
    44    16    21    1
    45    17    22    1
    46    17    42    1
    47    17    43    1
    48    18    44    1
    49    19    45    1
    50    19    46    1
    51    19    47    1
    52    20    48    1
    53    20    49    1
    54    20    50    1
    55    21    23    1
    56    21    51    1
    57    21    52    1
    58    22    23    1
    59    22    53    1
    60    22    54    1
    61    23    55    1
