@<TRIPOS>MOLECULE
IMPHY015454
 60 59 0 0 0
SMALL
GASTEIGER

@<TRIPOS>ATOM
      1 O           2.8660    0.6900    0.0000 O.3     1  UNL1       -0.3545
      2 O           3.7320   -0.8100    0.0000 O.3     1  UNL1       -0.3545
      3 C           7.1962    0.1900    0.0000 C.3     1  UNL1       -0.0530
      4 C           6.3301    0.6900    0.0000 C.3     1  UNL1       -0.0529
      5 C           8.0622    0.6900    0.0000 C.3     1  UNL1       -0.0528
      6 C           5.4641    0.1900    0.0000 C.3     1  UNL1       -0.0485
      7 C           8.9282    0.1900    0.0000 C.3     1  UNL1       -0.0496
      8 C           4.5981    0.6900    0.0000 C.3     1  UNL1       -0.0016
      9 C           9.7942    0.6900    0.0000 C.3     1  UNL1       -0.0348
     10 C           3.7320    0.1900    0.0000 C.3     1  UNL1        0.1584
     11 C          10.6603    0.1900    0.0000 C.2     1  UNL1       -0.0876
     12 C          15.8564    0.1900    0.0000 C.3     1  UNL1       -0.0496
     13 C          16.7224    0.6900    0.0000 C.3     1  UNL1       -0.0530
     14 C          14.9904    0.6900    0.0000 C.3     1  UNL1       -0.0348
     15 C          17.5885    0.1900    0.0000 C.3     1  UNL1       -0.0559
     16 C          11.5263    0.6900    0.0000 C.2     1  UNL1       -0.0842
     17 C          12.3923    0.1900    0.0000 C.3     1  UNL1       -0.0165
     18 C          14.1244    0.1900    0.0000 C.2     1  UNL1       -0.0876
     19 C          13.2583    0.6900    0.0000 C.2     1  UNL1       -0.0842
     20 C          18.4545    0.6900    0.0000 C.3     1  UNL1       -0.0653
     21 C           2.0000    0.1900    0.0000 C.3     1  UNL1        0.0394
     22 C           2.8660   -1.3100    0.0000 C.3     1  UNL1        0.0394
     23 H           6.7976   -0.2849    0.0000 H       1  UNL1        0.0265
     24 H           7.5947   -0.2849    0.0000 H       1  UNL1        0.0265
     25 H           6.7287    1.1650    0.0000 H       1  UNL1        0.0265
     26 H           5.9316    1.1650    0.0000 H       1  UNL1        0.0265
     27 H           8.4607    1.1650    0.0000 H       1  UNL1        0.0265
     28 H           7.6636    1.1650    0.0000 H       1  UNL1        0.0265
     29 H           5.0656   -0.2849    0.0000 H       1  UNL1        0.0267
     30 H           5.8626   -0.2849    0.0000 H       1  UNL1        0.0267
     31 H           8.5297   -0.2849    0.0000 H       1  UNL1        0.0268
     32 H           9.3267   -0.2849    0.0000 H       1  UNL1        0.0268
     33 H           4.9966    1.1650    0.0000 H       1  UNL1        0.0314
     34 H           4.1996    1.1650    0.0000 H       1  UNL1        0.0314
     35 H          10.1928    1.1650    0.0000 H       1  UNL1        0.0307
     36 H           9.3957    1.1650    0.0000 H       1  UNL1        0.0307
     37 H           3.7320    0.8100    0.0000 H       1  UNL1        0.0909
     38 H          10.6603   -0.4300    0.0000 H       1  UNL1        0.0569
     39 H          15.4579   -0.2849    0.0000 H       1  UNL1        0.0268
     40 H          16.2549   -0.2849    0.0000 H       1  UNL1        0.0268
     41 H          17.1210    1.1650    0.0000 H       1  UNL1        0.0265
     42 H          16.3239    1.1650    0.0000 H       1  UNL1        0.0265
     43 H          15.3889    1.1650    0.0000 H       1  UNL1        0.0307
     44 H          14.5919    1.1650    0.0000 H       1  UNL1        0.0307
     45 H          17.1899   -0.2849    0.0000 H       1  UNL1        0.0263
     46 H          17.9870   -0.2849    0.0000 H       1  UNL1        0.0263
     47 H          11.5263    1.3100    0.0000 H       1  UNL1        0.0572
     48 H          11.9938   -0.2849    0.0000 H       1  UNL1        0.0350
     49 H          12.7908   -0.2849    0.0000 H       1  UNL1        0.0350
     50 H          14.1244   -0.4300    0.0000 H       1  UNL1        0.0569
     51 H          13.2583    1.3100    0.0000 H       1  UNL1        0.0572
     52 H          18.7645    0.1531    0.0000 H       1  UNL1        0.0230
     53 H          18.9914    1.0000    0.0000 H       1  UNL1        0.0230
     54 H          18.1445    1.2269    0.0000 H       1  UNL1        0.0230
     55 H           1.6900    0.7269    0.0000 H       1  UNL1        0.0525
     56 H           1.4631   -0.1200    0.0000 H       1  UNL1        0.0525
     57 H           2.3100   -0.3469    0.0000 H       1  UNL1        0.0525
     58 H           2.5560   -0.7731    0.0000 H       1  UNL1        0.0525
     59 H           2.3291   -1.6200    0.0000 H       1  UNL1        0.0525
     60 H           3.1760   -1.8469    0.0000 H       1  UNL1        0.0525
@<TRIPOS>BOND
     1     1    10    1
     2     1    21    1
     3     2    10    1
     4     2    22    1
     5     3     4    1
     6     3     5    1
     7     3    23    1
     8     3    24    1
     9     4     6    1
    10     4    25    1
    11     4    26    1
    12     5     7    1
    13     5    27    1
    14     5    28    1
    15     6     8    1
    16     6    29    1
    17     6    30    1
    18     7     9    1
    19     7    31    1
    20     7    32    1
    21     8    10    1
    22     8    33    1
    23     8    34    1
    24     9    11    1
    25     9    35    1
    26     9    36    1
    27    10    37    1
    28    11    16    2
    29    11    38    1
    30    12    13    1
    31    12    14    1
    32    12    39    1
    33    12    40    1
    34    13    15    1
    35    13    41    1
    36    13    42    1
    37    14    18    1
    38    14    43    1
    39    14    44    1
    40    15    20    1
    41    15    45    1
    42    15    46    1
    43    16    17    1
    44    16    47    1
    45    17    19    1
    46    17    48    1
    47    17    49    1
    48    18    19    2
    49    18    50    1
    50    19    51    1
    51    20    52    1
    52    20    53    1
    53    20    54    1
    54    21    55    1
    55    21    56    1
    56    21    57    1
    57    22    58    1
    58    22    59    1
    59    22    60    1
