@<TRIPOS>MOLECULE
IMPHY009332
 37 39 0 0 0
SMALL
GASTEIGER

@<TRIPOS>ATOM
      1 O           6.3981   -0.2704    0.0000 O.3     1  UNL1       -0.4802
      2 O           8.1301    1.7296    0.0000 O.3     1  UNL1       -0.3798
      3 O           6.3981    2.7296    0.0000 O.2     1  UNL1       -0.2889
      4 O           4.6497    2.7642    0.0000 O.3     1  UNL1       -0.5058
      5 O           2.8680   -0.2945    0.0000 O.3     1  UNL1       -0.4949
      6 O           8.9962   -2.7704    0.0000 O.3     1  UNL1       -0.5033
      7 O          10.7282   -1.7704    0.0000 O.3     1  UNL1       -0.5033
      8 C           7.2641    0.2296    0.0000 C.3     1  UNL1        0.1582
      9 C           7.2641    1.2296    0.0000 C.3     1  UNL1        0.1585
     10 C           8.1301   -0.2704    0.0000 C.ar    1  UNL1       -0.0007
     11 C           6.3981    1.7296    0.0000 C.2     1  UNL1        0.2024
     12 C           5.5320    1.2296    0.0000 C.ar    1  UNL1        0.1033
     13 C           5.5320    0.2296    0.0000 C.ar    1  UNL1        0.1391
     14 C           4.6381    1.7643    0.0000 C.ar    1  UNL1        0.1344
     15 C           4.6381   -0.3051    0.0000 C.ar    1  UNL1        0.0227
     16 C           8.1301   -1.2704    0.0000 C.ar    1  UNL1       -0.0098
     17 C           8.9962    0.2296    0.0000 C.ar    1  UNL1       -0.0513
     18 C           3.7320    0.2088    0.0000 C.ar    1  UNL1        0.1271
     19 C           3.7320    1.2504    0.0000 C.ar    1  UNL1        0.0225
     20 C           8.9962   -1.7704    0.0000 C.ar    1  UNL1        0.1586
     21 C           9.8622   -0.2704    0.0000 C.ar    1  UNL1       -0.0162
     22 C           9.8622   -1.2704    0.0000 C.ar    1  UNL1        0.1582
     23 C           2.0000    0.2021    0.0000 C.3     1  UNL1        0.0788
     24 H           7.2641   -0.3904    0.0000 H       1  UNL1        0.0815
     25 H           7.2641    1.8496    0.0000 H       1  UNL1        0.0718
     26 H           4.6453   -0.9250    0.0000 H       1  UNL1        0.0691
     27 H           7.5932   -1.5804    0.0000 H       1  UNL1        0.0659
     28 H           8.9962    0.8496    0.0000 H       1  UNL1        0.0623
     29 H           8.1301    2.3496    0.0000 H       1  UNL1        0.2105
     30 H           3.1963    1.5625    0.0000 H       1  UNL1        0.0691
     31 H          10.3991    0.0396    0.0000 H       1  UNL1        0.0655
     32 H           4.1164    3.0804    0.0000 H       1  UNL1        0.2922
     33 H           8.4592   -3.0804    0.0000 H       1  UNL1        0.2923
     34 H          11.2651   -1.4604    0.0000 H       1  UNL1        0.2923
     35 H           2.3079    0.7402    0.0000 H       1  UNL1        0.0660
     36 H           1.4619    0.5100    0.0000 H       1  UNL1        0.0660
     37 H           1.6921   -0.3360    0.0000 H       1  UNL1        0.0660
@<TRIPOS>BOND
     1     1     8    1
     2     1    13    1
     3     9     2    1
     4     2    29    1
     5     3    11    2
     6     4    14    1
     7     4    32    1
     8     5    18    1
     9     5    23    1
    10     6    20    1
    11     6    33    1
    12     7    22    1
    13     7    34    1
    14     8     9    1
    15     8    10    1
    16     8    24    1
    17     9    11    1
    18     9    25    1
    19    10    16   ar
    20    10    17   ar
    21    11    12    1
    22    12    13   ar
    23    12    14   ar
    24    13    15   ar
    25    14    19   ar
    26    15    18   ar
    27    15    26    1
    28    16    20   ar
    29    16    27    1
    30    17    21   ar
    31    17    28    1
    32    18    19   ar
    33    19    30    1
    34    20    22   ar
    35    21    22   ar
    36    21    31    1
    37    23    35    1
    38    23    36    1
    39    23    37    1
