@<TRIPOS>MOLECULE
IMPHY000067
 40 42 0 0 0
SMALL
GASTEIGER

@<TRIPOS>ATOM
      1 O           2.3337   -0.4070    0.0000 O.3     1  UNL1       -0.4279
      2 O           2.6067    1.3482    0.0000 O.3     1  UNL1       -0.3543
      3 O           2.6067   -2.1623    0.0000 O.2     1  UNL1       -0.2452
      4 C           5.5956    0.0930    0.0000 C.3     1  UNL1       -0.0263
      5 C           4.7296    0.5930    0.0000 C.3     1  UNL1       -0.0012
      6 C           6.5056    0.5998    0.0000 C.3     1  UNL1       -0.0313
      7 C           4.7135    1.6345    0.0000 C.3     1  UNL1       -0.0434
      8 C           5.5956   -0.9070    0.0000 C.3     1  UNL1       -0.0447
      9 C           6.5136    1.6414    0.0000 C.3     1  UNL1       -0.0476
     10 C           3.8636    0.0930    0.0000 C.2     1  UNL1        0.0138
     11 C           5.6116    2.1623    0.0000 C.3     1  UNL1       -0.0518
     12 C           4.7296   -1.4070    0.0000 C.3     1  UNL1       -0.0204
     13 C           3.8636    1.0930    0.0000 C.3     1  UNL1       -0.0554
     14 C           3.8636   -0.9070    0.0000 C.2     1  UNL1        0.0423
     15 C           7.5055    0.5883    0.0000 C.3     1  UNL1       -0.0595
     16 C           6.9956   -0.2719    0.0000 C.3     1  UNL1       -0.0595
     17 C           2.9173    0.3977    0.0000 C.3     1  UNL1        0.2267
     18 C           2.9173   -1.2117    0.0000 C.2     1  UNL1        0.3377
     19 H           6.3284   -0.3377    0.0000 H       1  UNL1        0.0314
     20 H           4.4955    2.2149    0.0000 H       1  UNL1        0.0274
     21 H           4.1044    1.5190    0.0000 H       1  UNL1        0.0274
     22 H           5.8077   -1.4896    0.0000 H       1  UNL1        0.0272
     23 H           6.2062   -0.7993    0.0000 H       1  UNL1        0.0272
     24 H           7.1237    1.5306    0.0000 H       1  UNL1        0.0271
     25 H           6.7272    2.2235    0.0000 H       1  UNL1        0.0271
     26 H           6.0089    2.6382    0.0000 H       1  UNL1        0.0266
     27 H           5.2106    2.6352    0.0000 H       1  UNL1        0.0266
     28 H           4.3310   -1.8820    0.0000 H       1  UNL1        0.0315
     29 H           5.1281   -1.8820    0.0000 H       1  UNL1        0.0315
     30 H           4.1736    1.6299    0.0000 H       1  UNL1        0.0238
     31 H           3.3266    1.4030    0.0000 H       1  UNL1        0.0238
     32 H           3.5536    0.5561    0.0000 H       1  UNL1        0.0238
     33 H           7.4984   -0.0317    0.0000 H       1  UNL1        0.0235
     34 H           8.1255    0.5811    0.0000 H       1  UNL1        0.0235
     35 H           7.5127    1.2082    0.0000 H       1  UNL1        0.0235
     36 H           6.4551   -0.5757    0.0000 H       1  UNL1        0.0235
     37 H           7.2993   -0.8124    0.0000 H       1  UNL1        0.0235
     38 H           7.5360    0.0319    0.0000 H       1  UNL1        0.0235
     39 H           2.3048    0.4939    0.0000 H       1  UNL1        0.1108
     40 H           2.0000    1.4761    0.0000 H       1  UNL1        0.2139
@<TRIPOS>BOND
     1     1    17    1
     2     1    18    1
     3    17     2    1
     4     2    40    1
     5     3    18    2
     6     4     5    1
     7     4     6    1
     8     4     8    1
     9     4    19    1
    10     5     7    1
    11     5    10    1
    12     5    13    1
    13     6     9    1
    14     6    15    1
    15     6    16    1
    16     7    11    1
    17     7    20    1
    18     7    21    1
    19     8    12    1
    20     8    22    1
    21     8    23    1
    22     9    11    1
    23     9    24    1
    24     9    25    1
    25    10    14    2
    26    10    17    1
    27    11    26    1
    28    11    27    1
    29    12    14    1
    30    12    28    1
    31    12    29    1
    32    13    30    1
    33    13    31    1
    34    13    32    1
    35    14    18    1
    36    15    33    1
    37    15    34    1
    38    15    35    1
    39    16    36    1
    40    16    37    1
    41    16    38    1
    42    17    39    1
