@<TRIPOS>MOLECULE
IMPHY015545
 28 29 0 0 0
SMALL
GASTEIGER

@<TRIPOS>ATOM
      1 O           5.4646   -0.0000    0.0000 O.3     1  UNL1       -0.3565
      2 O           3.7320   -2.0000    0.0000 O.2     1  UNL1       -0.2943
      3 C           4.5981    0.5000    0.0000 C.3     1  UNL1        0.1057
      4 C           4.5981   -0.5000    0.0000 C.3     1  UNL1        0.1465
      5 C           3.7320    1.0000    0.0000 C.3     1  UNL1       -0.0200
      6 C           4.5981    1.5000    0.0000 C.3     1  UNL1       -0.0146
      7 C           2.8660    0.5000    0.0000 C.3     1  UNL1       -0.0410
      8 C           2.8660   -0.5000    0.0000 C.3     1  UNL1        0.0175
      9 C           3.7320   -1.0000    0.0000 C.2     1  UNL1        0.1674
     10 C           5.4641    2.0000    0.0000 C.3     1  UNL1       -0.0600
     11 C           3.7320    2.0000    0.0000 C.3     1  UNL1       -0.0600
     12 C           2.0000   -1.0000    0.0000 C.3     1  UNL1       -0.0556
     13 H           4.9080   -1.0370    0.0000 H       1  UNL1        0.0705
     14 H           4.1306    1.4750    0.0000 H       1  UNL1        0.0294
     15 H           3.3335    1.4750    0.0000 H       1  UNL1        0.0294
     16 H           4.5981    2.1200    0.0000 H       1  UNL1        0.0324
     17 H           2.6540    1.0826    0.0000 H       1  UNL1        0.0273
     18 H           2.2554    0.3923    0.0000 H       1  UNL1        0.0273
     19 H           2.8660   -1.1200    0.0000 H       1  UNL1        0.0375
     20 H           5.7741    1.4631    0.0000 H       1  UNL1        0.0233
     21 H           6.0010    2.3100    0.0000 H       1  UNL1        0.0233
     22 H           5.1541    2.5369    0.0000 H       1  UNL1        0.0233
     23 H           4.0420    2.5369    0.0000 H       1  UNL1        0.0233
     24 H           3.1951    2.3100    0.0000 H       1  UNL1        0.0233
     25 H           3.4220    1.4631    0.0000 H       1  UNL1        0.0233
     26 H           1.6900   -0.4631    0.0000 H       1  UNL1        0.0236
     27 H           1.4631   -1.3100    0.0000 H       1  UNL1        0.0236
     28 H           2.3100   -1.5369    0.0000 H       1  UNL1        0.0236
@<TRIPOS>BOND
     1     1     3    1
     2     1     4    1
     3     2     9    2
     4     3     4    1
     5     3     5    1
     6     3     6    1
     7     4     9    1
     8     4    13    1
     9     5     7    1
    10     5    14    1
    11     5    15    1
    12     6    10    1
    13     6    11    1
    14     6    16    1
    15     7     8    1
    16     7    17    1
    17     7    18    1
    18     8     9    1
    19     8    12    1
    20     8    19    1
    21    10    20    1
    22    10    21    1
    23    10    22    1
    24    11    23    1
    25    11    24    1
    26    11    25    1
    27    12    26    1
    28    12    27    1
    29    12    28    1
