@<TRIPOS>MOLECULE
IMPHY005007
 33 35 0 0 0
SMALL
GASTEIGER

@<TRIPOS>ATOM
      1 O           3.9061    1.0000    0.0000 O.3     1  UNL1       -0.4808
      2 O           7.4420    0.9722    0.0000 O.2     1  UNL1       -0.4219
      3 O           5.6660   -2.0346    0.0000 O.3     1  UNL1       -0.4943
      4 O           8.3180    2.5105    0.0000 O.2     1  UNL1       -0.2452
      5 C           3.0000    0.4862    0.0000 C.3     1  UNL1        0.1235
      6 C           4.8000    0.4654    0.0000 C.ar    1  UNL1        0.1430
      7 C           4.8000   -0.5346    0.0000 C.ar    1  UNL1        0.0589
      8 C           3.0000   -0.5554    0.0000 C.2     1  UNL1       -0.0408
      9 C           5.6660    0.9654    0.0000 C.ar    1  UNL1        0.0601
     10 C           2.0000    0.4900    0.0000 C.3     1  UNL1       -0.0215
     11 C           2.5033    1.3541    0.0000 C.3     1  UNL1       -0.0215
     12 C           3.9061   -1.0693    0.0000 C.2     1  UNL1       -0.0478
     13 C           5.6660   -1.0346    0.0000 C.ar    1  UNL1        0.1342
     14 C           6.5320    0.4654    0.0000 C.ar    1  UNL1        0.1461
     15 C           6.5320   -0.5346    0.0000 C.ar    1  UNL1        0.0239
     16 C           5.6500    2.0069    0.0000 C.ar    1  UNL1       -0.0408
     17 C           6.5480    2.5346    0.0000 C.ar    1  UNL1        0.0237
     18 C           7.4501    2.0138    0.0000 C.ar    1  UNL1        0.3372
     19 C           6.5320   -2.5346    0.0000 C.3     1  UNL1        0.0788
     20 H           2.4643   -0.8675    0.0000 H       1  UNL1        0.0611
     21 H           2.0024    1.1100    0.0000 H       1  UNL1        0.0271
     22 H           1.3800    0.4924    0.0000 H       1  UNL1        0.0271
     23 H           1.9976   -0.1300    0.0000 H       1  UNL1        0.0271
     24 H           3.0415    1.6621    0.0000 H       1  UNL1        0.0271
     25 H           2.1954    1.8923    0.0000 H       1  UNL1        0.0271
     26 H           1.9652    1.0462    0.0000 H       1  UNL1        0.0271
     27 H           3.9132   -1.6892    0.0000 H       1  UNL1        0.0624
     28 H           7.0690   -0.8446    0.0000 H       1  UNL1        0.0691
     29 H           5.1095    2.3106    0.0000 H       1  UNL1        0.0628
     30 H           6.5456    3.1546    0.0000 H       1  UNL1        0.0689
     31 H           6.2220   -3.0716    0.0000 H       1  UNL1        0.0660
     32 H           7.0690   -2.8446    0.0000 H       1  UNL1        0.0660
     33 H           6.8420   -1.9977    0.0000 H       1  UNL1        0.0660
@<TRIPOS>BOND
     1     1     5    1
     2     1     6    1
     3     2    14   ar
     4     2    18   ar
     5     3    13    1
     6     3    19    1
     7     4    18    2
     8     5     8    1
     9     5    10    1
    10     5    11    1
    11     6     7   ar
    12     6     9   ar
    13     7    12    1
    14     7    13   ar
    15     8    12    2
    16     8    20    1
    17     9    14   ar
    18     9    16   ar
    19    10    21    1
    20    10    22    1
    21    10    23    1
    22    11    24    1
    23    11    25    1
    24    11    26    1
    25    12    27    1
    26    13    15   ar
    27    14    15   ar
    28    15    28    1
    29    16    17   ar
    30    16    29    1
    31    17    18   ar
    32    17    30    1
    33    19    31    1
    34    19    32    1
    35    19    33    1
