@<TRIPOS>MOLECULE
IMPHY001328
 51 56 0 0 0
SMALL
GASTEIGER

@<TRIPOS>ATOM
      1 O           2.0078    2.1812    0.0000 O.3     1  UNL1       -0.3662
      2 O           4.6660    2.6184    0.0000 O.3     1  UNL1       -0.3914
      3 O           6.3981    2.6184    0.0000 O.3     1  UNL1       -0.4646
      4 O           7.2641    1.1184    0.0000 O.2     1  UNL1       -0.2453
      5 N           2.9061   -0.4163    0.0000 N.3     1  UNL1       -0.2949
      6 N           6.2691   -0.5487    0.0000 N.pl3   1  UNL1       -0.3164
      7 C           3.8000    1.1184    0.0000 C.3     1  UNL1        0.0459
      8 C           3.8000    0.1184    0.0000 C.3     1  UNL1        0.0361
      9 C           2.9061    1.6530    0.0000 C.3     1  UNL1        0.0962
     10 C           4.6660   -0.3816    0.0000 C.3     1  UNL1        0.0532
     11 C           2.0000    1.1392    0.0000 C.3     1  UNL1        0.0985
     12 C           2.0000    0.0975    0.0000 C.3     1  UNL1        0.0280
     13 C           4.6660    1.6184    0.0000 C.3     1  UNL1       -0.0075
     14 C           4.3009   -1.3060    0.0000 C.3     1  UNL1       -0.0238
     15 C           3.3073   -1.3255    0.0000 C.3     1  UNL1        0.0005
     16 C           3.8000    2.1184    0.0000 C.3     1  UNL1        0.0623
     17 C           5.5321    0.1184    0.0000 C.2     1  UNL1        0.0304
     18 C           4.8752   -1.3534    0.0000 C.ar    1  UNL1       -0.0130
     19 C           5.5321    1.1184    0.0000 C.2     1  UNL1        0.0551
     20 C           5.8640   -1.4565    0.0000 C.ar    1  UNL1        0.0353
     21 C           2.9340    2.6184    0.0000 C.3     1  UNL1       -0.0383
     22 C           4.2545   -2.1822    0.0000 C.ar    1  UNL1       -0.0559
     23 C           6.3981    1.6184    0.0000 C.2     1  UNL1        0.3364
     24 C           6.3005   -2.3955    0.0000 C.ar    1  UNL1       -0.0403
     25 C           4.6692   -3.1310    0.0000 C.ar    1  UNL1       -0.0614
     26 C           5.6990   -3.2384    0.0000 C.ar    1  UNL1       -0.0600
     27 C           7.2641    3.1184    0.0000 C.3     1  UNL1        0.0820
     28 H           3.0639    0.5434    0.0000 H       1  UNL1        0.0482
     29 H           3.2223    2.1863    0.0000 H       1  UNL1        0.0629
     30 H           1.3800    1.1415    0.0000 H       1  UNL1        0.0635
     31 H           1.3891    0.2036    0.0000 H       1  UNL1        0.0453
     32 H           1.7909   -0.4861    0.0000 H       1  UNL1        0.0453
     33 H           5.0646    2.0933    0.0000 H       1  UNL1        0.0323
     34 H           4.2675    2.0933    0.0000 H       1  UNL1        0.0323
     35 H           4.2315   -1.9220    0.0000 H       1  UNL1        0.0290
     36 H           4.9025   -1.4559    0.0000 H       1  UNL1        0.0290
     37 H           2.7121   -1.4990    0.0000 H       1  UNL1        0.0427
     38 H           3.4010   -1.9384    0.0000 H       1  UNL1        0.0427
     39 H           3.8000    2.7384    0.0000 H       1  UNL1        0.0597
     40 H           6.8758   -0.4209    0.0000 H       1  UNL1        0.1519
     41 H           3.2440    3.1553    0.0000 H       1  UNL1        0.0255
     42 H           2.3970    2.9284    0.0000 H       1  UNL1        0.0255
     43 H           2.6240    2.0814    0.0000 H       1  UNL1        0.0255
     44 H           3.6386   -2.1108    0.0000 H       1  UNL1        0.0621
     45 H           4.6660    3.2384    0.0000 H       1  UNL1        0.2098
     46 H           6.9178   -2.4526    0.0000 H       1  UNL1        0.0636
     47 H           4.3032   -3.6315    0.0000 H       1  UNL1        0.0618
     48 H           5.9539   -3.8036    0.0000 H       1  UNL1        0.0618
     49 H           7.5741    2.5814    0.0000 H       1  UNL1        0.0661
     50 H           7.8010    3.4284    0.0000 H       1  UNL1        0.0661
     51 H           6.9541    3.6553    0.0000 H       1  UNL1        0.0661
@<TRIPOS>BOND
     1     1     9    1
     2     1    11    1
     3     2    16    1
     4     2    45    1
     5     3    23    1
     6     3    27    1
     7     4    23    2
     8     5     8    1
     9     5    12    1
    10     5    15    1
    11     6    17    1
    12     6    20    1
    13     6    40    1
    14     7     8    1
    15     7     9    1
    16     7    13    1
    17     7    16    1
    18     8    10    1
    19     8    28    1
    20     9    11    1
    21     9    29    1
    22    10    14    1
    23    10    17    1
    24    10    18    1
    25    11    12    1
    26    11    30    1
    27    12    31    1
    28    12    32    1
    29    13    19    1
    30    13    33    1
    31    13    34    1
    32    14    15    1
    33    14    35    1
    34    14    36    1
    35    15    37    1
    36    15    38    1
    37    16    21    1
    38    16    39    1
    39    17    19    2
    40    18    20   ar
    41    18    22   ar
    42    19    23    1
    43    20    24   ar
    44    21    41    1
    45    21    42    1
    46    21    43    1
    47    22    25   ar
    48    22    44    1
    49    24    26   ar
    50    24    46    1
    51    25    26   ar
    52    25    47    1
    53    26    48    1
    54    27    49    1
    55    27    50    1
    56    27    51    1
