@<TRIPOS>MOLECULE
IMPHY006092
 37 38 0 0 0
SMALL
GASTEIGER

@<TRIPOS>ATOM
      1 O           6.3301    1.6550    0.0000 O.3     1  UNL1       -0.4570
      2 O           2.8660   -3.3450    0.0000 O.3     1  UNL1       -0.4914
      3 O           4.5981   -4.3450    0.0000 O.3     1  UNL1       -0.5033
      4 O           5.4641    3.1550    0.0000 O.2     1  UNL1       -0.2450
      5 C           4.5981   -1.3450    0.0000 C.ar    1  UNL1       -0.0215
      6 C           3.7320   -1.8450    0.0000 C.ar    1  UNL1       -0.0092
      7 C           3.7320   -2.8450    0.0000 C.ar    1  UNL1        0.1618
      8 C           5.4641   -1.8450    0.0000 C.ar    1  UNL1       -0.0509
      9 C           4.5981   -0.3450    0.0000 C.2     1  UNL1       -0.0552
     10 C           4.5981   -3.3450    0.0000 C.ar    1  UNL1        0.1585
     11 C           5.4641   -2.8450    0.0000 C.ar    1  UNL1       -0.0160
     12 C           5.4641    0.1550    0.0000 C.2     1  UNL1       -0.0465
     13 C           5.4641    1.1550    0.0000 C.3     1  UNL1        0.1113
     14 C           7.1962    3.1550    0.0000 C.ar    1  UNL1        0.0590
     15 C           6.3301    2.6550    0.0000 C.2     1  UNL1        0.3395
     16 C           8.0622    2.6550    0.0000 C.ar    1  UNL1       -0.0478
     17 C           7.1962    4.1550    0.0000 C.ar    1  UNL1       -0.0478
     18 C           8.9282    3.1550    0.0000 C.ar    1  UNL1       -0.0610
     19 C           8.0622    4.6550    0.0000 C.ar    1  UNL1       -0.0610
     20 C           8.9282    4.1550    0.0000 C.ar    1  UNL1       -0.0617
     21 C           2.0000   -2.8450    0.0000 C.3     1  UNL1        0.0790
     22 H           3.1951   -1.5350    0.0000 H       1  UNL1        0.0661
     23 H           6.0010   -1.5350    0.0000 H       1  UNL1        0.0625
     24 H           4.0611   -0.0350    0.0000 H       1  UNL1        0.0621
     25 H           6.0010   -3.1550    0.0000 H       1  UNL1        0.0655
     26 H           6.0010   -0.1550    0.0000 H       1  UNL1        0.0606
     27 H           5.2520    1.7376    0.0000 H       1  UNL1        0.0743
     28 H           4.8535    1.0473    0.0000 H       1  UNL1        0.0743
     29 H           8.0622    2.0350    0.0000 H       1  UNL1        0.0626
     30 H           6.6592    4.4650    0.0000 H       1  UNL1        0.0626
     31 H           9.4651    2.8450    0.0000 H       1  UNL1        0.0618
     32 H           8.0622    5.2750    0.0000 H       1  UNL1        0.0618
     33 H           9.4651    4.4650    0.0000 H       1  UNL1        0.0618
     34 H           5.1350   -4.6550    0.0000 H       1  UNL1        0.2923
     35 H           2.3100   -2.3081    0.0000 H       1  UNL1        0.0660
     36 H           1.4631   -2.5350    0.0000 H       1  UNL1        0.0660
     37 H           1.6900   -3.3819    0.0000 H       1  UNL1        0.0660
@<TRIPOS>BOND
     1     1    13    1
     2     1    15    1
     3     2     7    1
     4     2    21    1
     5     3    10    1
     6     3    34    1
     7     4    15    2
     8     5     6   ar
     9     5     8   ar
    10     5     9    1
    11     6     7   ar
    12     6    22    1
    13     7    10   ar
    14     8    11   ar
    15     8    23    1
    16     9    12    2
    17     9    24    1
    18    10    11   ar
    19    11    25    1
    20    12    13    1
    21    12    26    1
    22    13    27    1
    23    13    28    1
    24    14    15    1
    25    14    16   ar
    26    14    17   ar
    27    16    18   ar
    28    16    29    1
    29    17    19   ar
    30    17    30    1
    31    18    20   ar
    32    18    31    1
    33    19    20   ar
    34    19    32    1
    35    20    33    1
    36    21    35    1
    37    21    36    1
    38    21    37    1
