@<TRIPOS>MOLECULE
IMPHY003228
 75 80 0 0 0
SMALL
GASTEIGER

@<TRIPOS>ATOM
      1 O          11.1210    1.6164    0.0000 O.3     1  UNL1       -0.4914
      2 O          12.8948    0.5922    0.0000 O.3     1  UNL1       -0.4914
      3 O           2.9949    3.8763    0.0000 O.3     1  UNL1       -0.4951
      4 N           9.3768   -2.4529    0.0000 N.3     1  UNL1       -0.2948
      5 N           7.6186    0.5921    0.0000 N.3     1  UNL1       -0.3078
      6 N           4.8699    0.2827    0.0000 N.ar    1  UNL1       -0.3565
      7 C           7.5768   -1.4321    0.0000 C.3     1  UNL1       -0.0336
      8 C           7.5768   -2.4737    0.0000 C.3     1  UNL1       -0.0255
      9 C           9.3768   -1.4529    0.0000 C.3     1  UNL1        0.0363
     10 C           8.4829   -0.9182    0.0000 C.3     1  UNL1       -0.0300
     11 C           8.4829   -2.9875    0.0000 C.3     1  UNL1        0.0026
     12 C           6.7127   -0.9287    0.0000 C.3     1  UNL1       -0.0288
     13 C           6.7166    0.0713    0.0000 C.3     1  UNL1        0.0486
     14 C           6.7127   -2.9770    0.0000 C.3     1  UNL1       -0.0516
     15 C          10.2428   -2.9529    0.0000 C.3     1  UNL1        0.0035
     16 C          10.2428   -0.9529    0.0000 C.ar    1  UNL1       -0.0234
     17 C          11.1089   -2.4529    0.0000 C.3     1  UNL1       -0.0144
     18 C          11.1089   -1.4529    0.0000 C.ar    1  UNL1       -0.0378
     19 C           5.8185    0.5990    0.0000 C.ar    1  UNL1        0.0374
     20 C           6.7166   -3.9770    0.0000 C.3     1  UNL1       -0.0650
     21 C           5.8108    1.5990    0.0000 C.ar    1  UNL1       -0.0163
     22 C          10.2268    0.0886    0.0000 C.ar    1  UNL1       -0.0114
     23 C           7.6106    1.6337    0.0000 C.3     1  UNL1        0.0005
     24 C           6.7006    2.1405    0.0000 C.3     1  UNL1       -0.0128
     25 C          12.0189   -0.9460    0.0000 C.ar    1  UNL1       -0.0128
     26 C           4.8574    1.9007    0.0000 C.ar    1  UNL1        0.0066
     27 C          11.1248    0.6164    0.0000 C.ar    1  UNL1        0.1618
     28 C           4.2759    1.0871    0.0000 C.ar    1  UNL1        0.0472
     29 C          12.0269    0.0956    0.0000 C.ar    1  UNL1        0.1618
     30 C           4.4411    2.8555    0.0000 C.ar    1  UNL1       -0.0105
     31 C           3.2377    1.1720    0.0000 C.ar    1  UNL1       -0.0343
     32 C           3.4052    2.9644    0.0000 C.ar    1  UNL1        0.1208
     33 C           2.7994    2.1170    0.0000 C.ar    1  UNL1       -0.0180
     34 C          11.9851    2.1197    0.0000 C.3     1  UNL1        0.0790
     35 C          13.7589    0.0889    0.0000 C.3     1  UNL1        0.0790
     36 C           2.0000    3.9770    0.0000 C.3     1  UNL1        0.0788
     37 H           7.5804   -0.8121    0.0000 H       1  UNL1        0.0305
     38 H           7.5804   -3.0937    0.0000 H       1  UNL1        0.0316
     39 H           9.3834   -0.6029    0.0000 H       1  UNL1        0.0512
     40 H           8.8875   -0.4484    0.0000 H       1  UNL1        0.0286
     41 H           8.0892   -0.4392    0.0000 H       1  UNL1        0.0286
     42 H           8.0892   -3.4666    0.0000 H       1  UNL1        0.0429
     43 H           8.8875   -3.4573    0.0000 H       1  UNL1        0.0429
     44 H           6.1026   -0.8187    0.0000 H       1  UNL1        0.0287
     45 H           6.4984   -1.5105    0.0000 H       1  UNL1        0.0287
     46 H           7.2529   -0.2398    0.0000 H       1  UNL1        0.0525
     47 H           6.4984   -2.3952    0.0000 H       1  UNL1        0.0266
     48 H           6.1026   -3.0870    0.0000 H       1  UNL1        0.0266
     49 H           9.8443   -3.4278    0.0000 H       1  UNL1        0.0430
     50 H          10.6414   -3.4278    0.0000 H       1  UNL1        0.0430
     51 H          11.3209   -3.0355    0.0000 H       1  UNL1        0.0326
     52 H          11.7195   -2.3452    0.0000 H       1  UNL1        0.0326
     53 H           8.1568    0.2841    0.0000 H       1  UNL1        0.1226
     54 H           6.0966   -3.9794    0.0000 H       1  UNL1        0.0230
     55 H           6.7190   -4.5970    0.0000 H       1  UNL1        0.0230
     56 H           7.3366   -3.9746    0.0000 H       1  UNL1        0.0230
     57 H           9.6863    0.3924    0.0000 H       1  UNL1        0.0659
     58 H           8.2223    1.5323    0.0000 H       1  UNL1        0.0427
     59 H           7.8152    2.2190    0.0000 H       1  UNL1        0.0427
     60 H           7.0905    2.6226    0.0000 H       1  UNL1        0.0326
     61 H           6.2924    2.6072    0.0000 H       1  UNL1        0.0326
     62 H          12.5522   -1.2622    0.0000 H       1  UNL1        0.0658
     63 H           4.6828   -0.3084    0.0000 H       1  UNL1        0.1656
     64 H           4.8074    3.3557    0.0000 H       1  UNL1        0.0661
     65 H           2.8830    0.6635    0.0000 H       1  UNL1        0.0639
     66 H           2.1821    2.1746    0.0000 H       1  UNL1        0.0655
     67 H          12.2971    1.5840    0.0000 H       1  UNL1        0.0660
     68 H          12.5208    2.4318    0.0000 H       1  UNL1        0.0660
     69 H          11.6730    2.6554    0.0000 H       1  UNL1        0.0660
     70 H          13.4469   -0.4468    0.0000 H       1  UNL1        0.0660
     71 H          14.2947   -0.2232    0.0000 H       1  UNL1        0.0660
     72 H          14.0710    0.6246    0.0000 H       1  UNL1        0.0660
     73 H           2.0624    4.5939    0.0000 H       1  UNL1        0.0660
     74 H           1.3832    4.0395    0.0000 H       1  UNL1        0.0660
     75 H           1.9376    3.3602    0.0000 H       1  UNL1        0.0660
@<TRIPOS>BOND
     1     1    27    1
     2     1    34    1
     3     2    29    1
     4     2    35    1
     5     3    32    1
     6     3    36    1
     7     4     9    1
     8     4    11    1
     9     4    15    1
    10     5    13    1
    11     5    23    1
    12     5    53    1
    13     6    19   ar
    14     6    28   ar
    15     6    63    1
    16     7     8    1
    17     7    10    1
    18     7    12    1
    19     7    37    1
    20     8    11    1
    21     8    14    1
    22     8    38    1
    23     9    10    1
    24     9    16    1
    25     9    39    1
    26    10    40    1
    27    10    41    1
    28    11    42    1
    29    11    43    1
    30    13    12    1
    31    12    44    1
    32    12    45    1
    33    13    19    1
    34    13    46    1
    35    14    20    1
    36    14    47    1
    37    14    48    1
    38    15    17    1
    39    15    49    1
    40    15    50    1
    41    16    18   ar
    42    16    22   ar
    43    17    18    1
    44    17    51    1
    45    17    52    1
    46    18    25   ar
    47    19    21   ar
    48    20    54    1
    49    20    55    1
    50    20    56    1
    51    21    24    1
    52    21    26   ar
    53    22    27   ar
    54    22    57    1
    55    23    24    1
    56    23    58    1
    57    23    59    1
    58    24    60    1
    59    24    61    1
    60    25    29   ar
    61    25    62    1
    62    26    28   ar
    63    26    30   ar
    64    27    29   ar
    65    28    31   ar
    66    30    32   ar
    67    30    64    1
    68    31    33   ar
    69    31    65    1
    70    32    33   ar
    71    33    66    1
    72    34    67    1
    73    34    68    1
    74    34    69    1
    75    35    70    1
    76    35    71    1
    77    35    72    1
    78    36    73    1
    79    36    74    1
    80    36    75    1
