@<TRIPOS>MOLECULE
IMPHY001289
 46 49 0 0 0
SMALL
GASTEIGER

@<TRIPOS>ATOM
      1 O           8.0650    3.3718    0.0000 O.3     1  UNL1       -0.4532
      2 O           6.8671   -0.7031    0.0000 O.3     1  UNL1       -0.3093
      3 O           6.0010    0.7969    0.0000 O.2     1  UNL1       -0.4699
      4 O           5.1350   -0.7031    0.0000 O.3     1  UNL1       -0.3404
      5 O           6.8671   -2.7031    0.0000 O.3     1  UNL1       -0.3841
      6 O           5.1350   -3.7031    0.0000 O.3     1  UNL1       -0.3864
      7 O           3.4030   -2.7031    0.0000 O.3     1  UNL1       -0.3865
      8 O          10.2854    0.0120    0.0000 O.3     1  UNL1       -0.3907
      9 O           6.4084    4.0131    0.0000 O.2     1  UNL1       -0.2452
     10 O           2.5369   -1.2031    0.0000 O.3     1  UNL1       -0.3924
     11 C           7.7331    1.7969    0.0000 C.3     1  UNL1        0.0468
     12 C           7.7331    0.7969    0.0000 C.3     1  UNL1        0.0557
     13 C           8.4701    2.4640    0.0000 C.3     1  UNL1        0.1297
     14 C           6.8671    0.2969    0.0000 C.3     1  UNL1        0.2107
     15 C           8.7412    0.7966    0.0000 C.2     1  UNL1       -0.0353
     16 C           6.8671    2.2969    0.0000 C.2     1  UNL1        0.0784
     17 C           9.1489    1.7186    0.0000 C.2     1  UNL1       -0.0415
     18 C           6.0010   -1.2031    0.0000 C.3     1  UNL1        0.1918
     19 C           6.0010   -2.2031    0.0000 C.3     1  UNL1        0.1342
     20 C           5.1350   -2.7031    0.0000 C.3     1  UNL1        0.1141
     21 C           7.0763    3.2688    0.0000 C.2     1  UNL1        0.3391
     22 C           6.0010    1.7969    0.0000 C.2     1  UNL1        0.0983
     23 C           4.2690   -2.2031    0.0000 C.3     1  UNL1        0.1119
     24 C           4.2690   -1.2031    0.0000 C.3     1  UNL1        0.1130
     25 C           9.2868   -0.0415    0.0000 C.3     1  UNL1        0.0659
     26 C           3.4030   -0.7031    0.0000 C.3     1  UNL1        0.0730
     27 H           7.7331    2.6469    0.0000 H       1  UNL1        0.0399
     28 H           7.9529   -0.0241    0.0000 H       1  UNL1        0.0414
     29 H           9.1815    2.9293    0.0000 H       1  UNL1        0.0786
     30 H           7.4040   -0.0131    0.0000 H       1  UNL1        0.1062
     31 H           9.7608    1.8181    0.0000 H       1  UNL1        0.0609
     32 H           6.0010   -0.5831    0.0000 H       1  UNL1        0.0939
     33 H           6.0010   -2.8231    0.0000 H       1  UNL1        0.0671
     34 H           4.5981   -3.0131    0.0000 H       1  UNL1        0.0648
     35 H           3.7320   -1.8931    0.0000 H       1  UNL1        0.0647
     36 H           5.4641    2.1069    0.0000 H       1  UNL1        0.1029
     37 H           4.2690   -0.5831    0.0000 H       1  UNL1        0.0647
     38 H           8.7164   -0.2844    0.0000 H       1  UNL1        0.0604
     39 H           9.4270   -0.6454    0.0000 H       1  UNL1        0.0604
     40 H           3.8015   -0.2281    0.0000 H       1  UNL1        0.0584
     41 H           3.0044   -0.2281    0.0000 H       1  UNL1        0.0584
     42 H           6.8671   -3.3231    0.0000 H       1  UNL1        0.2101
     43 H           4.5981   -4.0131    0.0000 H       1  UNL1        0.2100
     44 H           3.4030   -3.3231    0.0000 H       1  UNL1        0.2100
     45 H          10.6236   -0.5076    0.0000 H       1  UNL1        0.2098
     46 H           2.0000   -0.8931    0.0000 H       1  UNL1        0.2095
@<TRIPOS>BOND
     1     1    13    1
     2     1    21    1
     3    14     2    1
     4    18     2    1
     5     3    14    1
     6     3    22    1
     7     4    18    1
     8     4    24    1
     9    19     5    1
    10     5    42    1
    11    20     6    1
    12     6    43    1
    13    23     7    1
    14     7    44    1
    15     8    25    1
    16     8    45    1
    17     9    21    2
    18    10    26    1
    19    10    46    1
    20    11    12    1
    21    11    13    1
    22    11    16    1
    23    11    27    1
    24    12    14    1
    25    12    15    1
    26    12    28    1
    27    13    17    1
    28    13    29    1
    29    14    30    1
    30    15    17    2
    31    15    25    1
    32    16    21    1
    33    16    22    2
    34    17    31    1
    35    18    19    1
    36    18    32    1
    37    19    20    1
    38    19    33    1
    39    20    23    1
    40    20    34    1
    41    22    36    1
    42    23    24    1
    43    23    35    1
    44    24    26    1
    45    24    37    1
    46    25    38    1
    47    25    39    1
    48    26    40    1
    49    26    41    1
