@<TRIPOS>MOLECULE
IMPHY001811
 37 38 0 0 0
SMALL
GASTEIGER

@<TRIPOS>ATOM
      1 C           3.4088    1.1235    0.0000 C.3     1  UNL1       -0.0096
      2 C           2.4339    0.9010    0.0000 C.3     1  UNL1       -0.0438
      3 C           3.4088   -1.1235    0.0000 C.3     1  UNL1       -0.0184
      4 C           4.1906    0.5000    0.0000 C.ar    1  UNL1       -0.0380
      5 C           2.0000    0.0000    0.0000 C.3     1  UNL1       -0.0517
      6 C           2.4339   -0.9010    0.0000 C.3     1  UNL1       -0.0464
      7 C           4.1906   -0.5000    0.0000 C.ar    1  UNL1       -0.0408
      8 C           3.1863    2.0984    0.0000 C.3     1  UNL1       -0.0558
      9 C           4.0323    1.9053    0.0000 C.3     1  UNL1       -0.0558
     10 C           5.0846    1.0347    0.0000 C.ar    1  UNL1       -0.0549
     11 C           3.6313   -2.0984    0.0000 C.3     1  UNL1       -0.0584
     12 C           5.0846   -1.0347    0.0000 C.ar    1  UNL1       -0.0578
     13 C           5.9906    0.5208    0.0000 C.ar    1  UNL1       -0.0502
     14 C           5.9906   -0.5208    0.0000 C.ar    1  UNL1       -0.0586
     15 C           6.8547    1.0241    0.0000 C.3     1  UNL1       -0.0397
     16 H           2.4339    1.5210    0.0000 H       1  UNL1        0.0274
     17 H           1.8294    1.0389    0.0000 H       1  UNL1        0.0274
     18 H           2.9704   -1.5619    0.0000 H       1  UNL1        0.0346
     19 H           1.5153    0.3866    0.0000 H       1  UNL1        0.0266
     20 H           1.5153   -0.3866    0.0000 H       1  UNL1        0.0266
     21 H           1.8294   -1.0389    0.0000 H       1  UNL1        0.0271
     22 H           2.4339   -1.5210    0.0000 H       1  UNL1        0.0271
     23 H           3.7908    2.2364    0.0000 H       1  UNL1        0.0238
     24 H           3.0483    2.7029    0.0000 H       1  UNL1        0.0238
     25 H           2.5818    1.9604    0.0000 H       1  UNL1        0.0238
     26 H           4.5170    1.5188    0.0000 H       1  UNL1        0.0238
     27 H           4.4189    2.3901    0.0000 H       1  UNL1        0.0238
     28 H           3.5476    2.2919    0.0000 H       1  UNL1        0.0238
     29 H           5.0774    1.6546    0.0000 H       1  UNL1        0.0623
     30 H           3.0269   -2.2364    0.0000 H       1  UNL1        0.0236
     31 H           3.7693   -2.7029    0.0000 H       1  UNL1        0.0236
     32 H           4.2358   -1.9604    0.0000 H       1  UNL1        0.0236
     33 H           5.0774   -1.6546    0.0000 H       1  UNL1        0.0621
     34 H           6.5264   -0.8329    0.0000 H       1  UNL1        0.0620
     35 H           7.1668    0.4884    0.0000 H       1  UNL1        0.0278
     36 H           7.3905    1.3362    0.0000 H       1  UNL1        0.0278
     37 H           6.5427    1.5599    0.0000 H       1  UNL1        0.0278
@<TRIPOS>BOND
     1     1     2    1
     2     1     4    1
     3     1     8    1
     4     1     9    1
     5     2     5    1
     6     2    16    1
     7     2    17    1
     8     3     6    1
     9     3     7    1
    10     3    11    1
    11     3    18    1
    12     4     7   ar
    13     4    10   ar
    14     5     6    1
    15     5    19    1
    16     5    20    1
    17     6    21    1
    18     6    22    1
    19     7    12   ar
    20     8    23    1
    21     8    24    1
    22     8    25    1
    23     9    26    1
    24     9    27    1
    25     9    28    1
    26    10    13   ar
    27    10    29    1
    28    11    30    1
    29    11    31    1
    30    11    32    1
    31    12    14   ar
    32    12    33    1
    33    13    14   ar
    34    13    15    1
    35    14    34    1
    36    15    35    1
    37    15    36    1
    38    15    37    1
