@<TRIPOS>MOLECULE
IMPHY005351
 24 24 0 0 0
SMALL
GASTEIGER

@<TRIPOS>ATOM
      1 O           5.5910    1.2952    0.0000 O.3     1  UNL1       -0.3863
      2 O           2.0000   -0.1047    0.0000 O.co2   1  UNL1       -0.5442
      3 O           2.5352   -1.7520    0.0000 O.co2   1  UNL1       -0.5442
      4 N           4.5032   -1.0526    0.0000 N.4     1  UNL1        0.2471
      5 C           3.6942   -0.4648    0.0000 C.3     1  UNL1        0.0235
      6 C           5.3122   -0.4648    0.0000 C.3     1  UNL1       -0.0031
      7 C           4.0032    0.4862    0.0000 C.3     1  UNL1        0.0269
      8 C           5.0032    0.4862    0.0000 C.3     1  UNL1        0.1004
      9 C           3.9154   -1.8616    0.0000 C.3     1  UNL1       -0.0408
     10 C           5.0910   -1.8616    0.0000 C.3     1  UNL1       -0.0408
     11 C           2.7431   -0.7739    0.0000 C.2     1  UNL1        0.0896
     12 H           3.5972   -1.0772    0.0000 H       1  UNL1        0.0917
     13 H           5.6222   -1.0018    0.0000 H       1  UNL1        0.0841
     14 H           5.8786   -0.2127    0.0000 H       1  UNL1        0.0841
     15 H           4.0680    1.1028    0.0000 H       1  UNL1        0.0351
     16 H           3.3968    0.6151    0.0000 H       1  UNL1        0.0351
     17 H           4.7217    1.0386    0.0000 H       1  UNL1        0.0649
     18 H           3.4138   -1.4972    0.0000 H       1  UNL1        0.0778
     19 H           3.5510   -2.3632    0.0000 H       1  UNL1        0.0778
     20 H           4.4170   -2.2261    0.0000 H       1  UNL1        0.0778
     21 H           4.5894   -2.2261    0.0000 H       1  UNL1        0.0778
     22 H           5.4554   -2.3632    0.0000 H       1  UNL1        0.0778
     23 H           5.5926   -1.4972    0.0000 H       1  UNL1        0.0778
     24 H           5.3388    1.8616    0.0000 H       1  UNL1        0.2100
@<TRIPOS>UNITY_ATOM_ATTR
2 1
charge -1
4 1
charge 1
@<TRIPOS>BOND
     1     8     1    1
     2     1    24    1
     3     2    11   ar
     4     3    11   ar
     5     4     5    1
     6     4     6    1
     7     4     9    1
     8     4    10    1
     9     5     7    1
    10     5    11    1
    11     5    12    1
    12     6     8    1
    13     6    13    1
    14     6    14    1
    15     7     8    1
    16     7    15    1
    17     7    16    1
    18     8    17    1
    19     9    18    1
    20     9    19    1
    21     9    20    1
    22    10    21    1
    23    10    22    1
    24    10    23    1
