@<TRIPOS>MOLECULE
IMPHY015764
 38 40 0 0 0
SMALL
GASTEIGER

@<TRIPOS>ATOM
      1 O           4.7387   -2.2846    0.0000 O.2     1  UNL1       -0.2927
      2 C           4.7266    0.7846    0.0000 C.3     1  UNL1       -0.0015
      3 C           2.9945    1.7846    0.0000 C.3     1  UNL1       -0.0313
      4 C           2.9945    0.7846    0.0000 C.3     1  UNL1       -0.0101
      5 C           3.6775    0.9676    0.0000 C.3     1  UNL1       -0.0395
      6 C           3.8606    0.2846    0.0000 C.2     1  UNL1       -0.0537
      7 C           5.6366    0.2778    0.0000 C.3     1  UNL1       -0.0186
      8 C           4.7266    1.7846    0.0000 C.3     1  UNL1       -0.0428
      9 C           3.8606    2.2846    0.0000 C.3     1  UNL1       -0.0486
     10 C           5.6446   -0.7638    0.0000 C.3     1  UNL1        0.0158
     11 C           2.0000    0.8892    0.0000 C.3     1  UNL1       -0.0558
     12 C           2.5878   -0.1289    0.0000 C.3     1  UNL1       -0.0558
     13 C           3.8445   -0.7569    0.0000 C.2     1  UNL1       -0.0189
     14 C           6.6365    0.2893    0.0000 C.3     1  UNL1       -0.0586
     15 C           6.1265    1.1495    0.0000 C.3     1  UNL1       -0.0586
     16 C           4.7425   -1.2846    0.0000 C.2     1  UNL1        0.1566
     17 H           2.4576    2.0946    0.0000 H       1  UNL1        0.0309
     18 H           3.1081    0.7224    0.0000 H       1  UNL1        0.0277
     19 H           3.7499    0.3519    0.0000 H       1  UNL1        0.0277
     20 H           5.3372    1.6770    0.0000 H       1  UNL1        0.0274
     21 H           4.9386    2.3672    0.0000 H       1  UNL1        0.0274
     22 H           4.2591    2.7596    0.0000 H       1  UNL1        0.0268
     23 H           3.4620    2.7596    0.0000 H       1  UNL1        0.0268
     24 H           5.8582   -1.3459    0.0000 H       1  UNL1        0.0350
     25 H           6.2546   -0.6530    0.0000 H       1  UNL1        0.0350
     26 H           2.0648    1.5058    0.0000 H       1  UNL1        0.0238
     27 H           1.3834    0.9540    0.0000 H       1  UNL1        0.0238
     28 H           1.9352    0.2726    0.0000 H       1  UNL1        0.0238
     29 H           2.0214    0.1233    0.0000 H       1  UNL1        0.0238
     30 H           2.3356   -0.6953    0.0000 H       1  UNL1        0.0238
     31 H           3.1542   -0.3811    0.0000 H       1  UNL1        0.0238
     32 H           3.3040   -1.0607    0.0000 H       1  UNL1        0.0652
     33 H           6.6437   -0.3306    0.0000 H       1  UNL1        0.0235
     34 H           7.2565    0.2965    0.0000 H       1  UNL1        0.0235
     35 H           6.6293    0.9093    0.0000 H       1  UNL1        0.0235
     36 H           6.6670    0.8458    0.0000 H       1  UNL1        0.0235
     37 H           6.4303    1.6900    0.0000 H       1  UNL1        0.0235
     38 H           5.5860    1.4533    0.0000 H       1  UNL1        0.0235
@<TRIPOS>BOND
     1     1    16    2
     2     2     5    1
     3     2     6    1
     4     2     7    1
     5     2     8    1
     6     3     4    1
     7     3     5    1
     8     3     9    1
     9     3    17    1
    10     4     6    1
    11     4    11    1
    12     4    12    1
    13     5    18    1
    14     5    19    1
    15     6    13    2
    16     7    10    1
    17     7    14    1
    18     7    15    1
    19     8     9    1
    20     8    20    1
    21     8    21    1
    22     9    22    1
    23     9    23    1
    24    10    16    1
    25    10    24    1
    26    10    25    1
    27    11    26    1
    28    11    27    1
    29    11    28    1
    30    12    29    1
    31    12    30    1
    32    12    31    1
    33    13    16    1
    34    13    32    1
    35    14    33    1
    36    14    34    1
    37    14    35    1
    38    15    36    1
    39    15    37    1
    40    15    38    1
