@<TRIPOS>MOLECULE
IMPHY000567
 51 53 0 0 0
SMALL
GASTEIGER

@<TRIPOS>ATOM
      1 O           6.8671   -1.0950    0.0000 O.3     1  UNL1       -0.3093
      2 O           6.0010    0.4050    0.0000 O.2     1  UNL1       -0.4699
      3 O           5.1350   -1.0950    0.0000 O.3     1  UNL1       -0.3404
      4 O           6.8671   -3.0950    0.0000 O.3     1  UNL1       -0.3841
      5 O           5.1350   -4.0950    0.0000 O.3     1  UNL1       -0.3864
      6 O           3.4030   -3.0950    0.0000 O.3     1  UNL1       -0.3865
      7 O           9.9685   -1.0565    0.0000 O.3     1  UNL1       -0.3907
      8 O           2.5369   -1.5950    0.0000 O.3     1  UNL1       -0.3924
      9 O           6.0010    3.4050    0.0000 O.3     1  UNL1       -0.4646
     10 O           7.7331    3.4050    0.0000 O.2     1  UNL1       -0.2452
     11 C           7.7331    0.4050    0.0000 C.3     1  UNL1        0.0522
     12 C           7.7331    1.4050    0.0000 C.3     1  UNL1        0.0095
     13 C           6.8671   -0.0950    0.0000 C.3     1  UNL1        0.2106
     14 C           8.6793    1.7097    0.0000 C.3     1  UNL1       -0.0265
     15 C           8.6793    0.1003    0.0000 C.2     1  UNL1       -0.0388
     16 C           6.0010   -1.5950    0.0000 C.3     1  UNL1        0.1918
     17 C           6.0010   -2.5950    0.0000 C.3     1  UNL1        0.1342
     18 C           9.2629    0.9050    0.0000 C.2     1  UNL1       -0.0815
     19 C           6.8671    1.9050    0.0000 C.2     1  UNL1        0.0749
     20 C           5.1350   -3.0950    0.0000 C.3     1  UNL1        0.1141
     21 C           4.2690   -2.5950    0.0000 C.3     1  UNL1        0.1119
     22 C           4.2690   -1.5950    0.0000 C.3     1  UNL1        0.1130
     23 C           8.9900   -0.8503    0.0000 C.3     1  UNL1        0.0658
     24 C           6.0010    1.4050    0.0000 C.2     1  UNL1        0.0981
     25 C           3.4030   -1.0950    0.0000 C.3     1  UNL1        0.0730
     26 C           6.8671    2.9050    0.0000 C.2     1  UNL1        0.3381
     27 C           6.0010    4.4050    0.0000 C.3     1  UNL1        0.0820
     28 H           7.8230   -0.4402    0.0000 H       1  UNL1        0.0413
     29 H           7.8230    2.2502    0.0000 H       1  UNL1        0.0363
     30 H           7.4040   -0.4050    0.0000 H       1  UNL1        0.1062
     31 H           9.2167    2.0190    0.0000 H       1  UNL1        0.0313
     32 H           8.4283    2.2766    0.0000 H       1  UNL1        0.0313
     33 H           6.0010   -0.9750    0.0000 H       1  UNL1        0.0939
     34 H           6.0010   -3.2150    0.0000 H       1  UNL1        0.0671
     35 H           9.8829    0.9050    0.0000 H       1  UNL1        0.0573
     36 H           4.5981   -3.4050    0.0000 H       1  UNL1        0.0648
     37 H           3.7320   -2.2850    0.0000 H       1  UNL1        0.0647
     38 H           4.2690   -0.9750    0.0000 H       1  UNL1        0.0647
     39 H           8.3762   -0.9376    0.0000 H       1  UNL1        0.0604
     40 H           8.9694   -1.4699    0.0000 H       1  UNL1        0.0604
     41 H           5.4641    1.7150    0.0000 H       1  UNL1        0.1029
     42 H           3.8015   -0.6201    0.0000 H       1  UNL1        0.0584
     43 H           3.0044   -0.6201    0.0000 H       1  UNL1        0.0584
     44 H           6.8671   -3.7150    0.0000 H       1  UNL1        0.2101
     45 H           4.5981   -4.4050    0.0000 H       1  UNL1        0.2100
     46 H           3.4030   -3.7150    0.0000 H       1  UNL1        0.2100
     47 H          10.1611   -1.6458    0.0000 H       1  UNL1        0.2098
     48 H           2.0000   -1.2850    0.0000 H       1  UNL1        0.2095
     49 H           6.6210    4.4050    0.0000 H       1  UNL1        0.0661
     50 H           6.0010    5.0250    0.0000 H       1  UNL1        0.0661
     51 H           5.3810    4.4050    0.0000 H       1  UNL1        0.0661
@<TRIPOS>BOND
     1    13     1    1
     2    16     1    1
     3     2    13    1
     4     2    24    1
     5     3    16    1
     6     3    22    1
     7    17     4    1
     8     4    44    1
     9    20     5    1
    10     5    45    1
    11    21     6    1
    12     6    46    1
    13     7    23    1
    14     7    47    1
    15     8    25    1
    16     8    48    1
    17     9    26    1
    18     9    27    1
    19    10    26    2
    20    11    12    1
    21    11    13    1
    22    11    15    1
    23    11    28    1
    24    12    14    1
    25    12    19    1
    26    12    29    1
    27    13    30    1
    28    14    18    1
    29    14    31    1
    30    14    32    1
    31    15    18    2
    32    15    23    1
    33    16    17    1
    34    16    33    1
    35    17    20    1
    36    17    34    1
    37    18    35    1
    38    19    24    2
    39    19    26    1
    40    20    21    1
    41    20    36    1
    42    21    22    1
    43    21    37    1
    44    22    25    1
    45    22    38    1
    46    23    39    1
    47    23    40    1
    48    24    41    1
    49    25    42    1
    50    25    43    1
    51    27    49    1
    52    27    50    1
    53    27    51    1
