@<TRIPOS>MOLECULE
IMPHY004125
 85 89 0 0 0
SMALL
GASTEIGER

@<TRIPOS>ATOM
      1 O           6.8671   -4.0400    0.0000 O.3     1  UNL1       -0.3366
      2 O           5.1350   -2.0400    0.0000 O.3     1  UNL1       -0.3313
      3 O           6.0010   -5.5400    0.0000 O.3     1  UNL1       -0.3315
      4 O           6.8671   -2.0400    0.0000 O.3     1  UNL1       -0.4571
      5 O           5.1350   -5.0400    0.0000 O.3     1  UNL1       -0.3863
      6 O           3.4030   -4.0400    0.0000 O.3     1  UNL1       -0.3865
      7 O           8.5991   -5.0400    0.0000 O.3     1  UNL1       -0.3841
      8 O           8.5991   -7.0400    0.0000 O.3     1  UNL1       -0.3864
      9 O           6.8671   -8.0399    0.0000 O.3     1  UNL1       -0.3860
     10 O           2.5369   -2.5400    0.0000 O.3     1  UNL1       -0.3924
     11 O           4.2690   -6.5400    0.0000 O.3     1  UNL1       -0.4788
     12 O           5.1350   -8.0399    0.0000 O.2     1  UNL1       -0.2480
     13 O           5.1350   -1.0400    0.0000 O.3     1  UNL1       -0.5031
     14 O           9.5650    2.9009    0.0000 O.co2   1  UNL1       -0.5435
     15 O           8.0650    3.7670    0.0000 O.co2   1  UNL1       -0.5435
     16 O           5.3369    7.7606    0.0000 O.3     1  UNL1       -0.4793
     17 OXT         6.9832    7.2226    0.0000 O.2     1  UNL1       -0.2489
     18 O           2.7585    5.4472    0.0000 O.3     1  UNL1       -0.4763
     19 OXT         3.1157    3.7523    0.0000 O.2     1  UNL1       -0.2437
     20 N           7.0763    1.9319    0.0000 N.2     1  UNL1       -0.1888
     21 N           4.7156    5.8596    0.0000 N.pl3   1  UNL1       -0.3256
     22 C           6.0010   -3.5400    0.0000 C.3     1  UNL1        0.1519
     23 C           5.1350   -4.0400    0.0000 C.3     1  UNL1        0.1155
     24 C           4.2690   -3.5400    0.0000 C.3     1  UNL1        0.1120
     25 C           6.0010   -2.5400    0.0000 C.3     1  UNL1        0.2313
     26 C           4.2690   -2.5400    0.0000 C.3     1  UNL1        0.1140
     27 C           6.8671   -5.0400    0.0000 C.3     1  UNL1        0.1892
     28 C           7.7331   -5.5400    0.0000 C.3     1  UNL1        0.1342
     29 C           7.7331   -6.5400    0.0000 C.3     1  UNL1        0.1145
     30 C           6.8671   -7.0400    0.0000 C.3     1  UNL1        0.1201
     31 C           6.0010   -6.5400    0.0000 C.3     1  UNL1        0.1859
     32 C           3.4030   -2.0400    0.0000 C.3     1  UNL1        0.0731
     33 C           6.8671   -1.0400    0.0000 C.ar    1  UNL1        0.1659
     34 C           7.7331    0.4600    0.0000 C.ar    1  UNL1        0.0342
     35 C           8.0650    2.0349    0.0000 C.3     1  UNL1        0.2042
     36 C           8.4701    1.1271    0.0000 C.3     1  UNL1        0.0470
     37 C           6.8671    0.9600    0.0000 C.ar    1  UNL1        0.2154
     38 C           5.1350   -7.0400    0.0000 C.2     1  UNL1        0.3367
     39 C           7.7331   -0.5400    0.0000 C.ar    1  UNL1       -0.0065
     40 C           6.0010   -0.5400    0.0000 C.ar    1  UNL1        0.1649
     41 C           6.0010    0.4600    0.0000 C.ar    1  UNL1        0.0551
     42 C           6.4084    2.6762    0.0000 C.2     1  UNL1        0.1726
     43 C           8.5650    2.9009    0.0000 C.2     1  UNL1        0.1108
     44 C           6.7191    3.6267    0.0000 C.2     1  UNL1        0.0053
     45 C           6.0512    4.3710    0.0000 C.2     1  UNL1       -0.0375
     46 C           6.3619    5.3215    0.0000 C.3     1  UNL1        0.0014
     47 CA          5.6941    6.0658    0.0000 C.3     1  UNL1        0.1224
     48 C           5.0727    4.1648    0.0000 C.2     1  UNL1       -0.0304
     49 CA          4.4049    4.9091    0.0000 C.2     1  UNL1        0.1130
     50 C           6.0047    7.0163    0.0000 C.2     1  UNL1        0.3255
     51 C           3.4264    4.7028    0.0000 C.2     1  UNL1        0.3508
     52 H           6.0010   -4.1600    0.0000 H       1  UNL1        0.0687
     53 H           4.5981   -4.3500    0.0000 H       1  UNL1        0.0648
     54 H           3.7320   -3.2300    0.0000 H       1  UNL1        0.0647
     55 H           6.0010   -1.9200    0.0000 H       1  UNL1        0.1084
     56 H           4.2690   -1.9200    0.0000 H       1  UNL1        0.0647
     57 H           7.4040   -4.7300    0.0000 H       1  UNL1        0.0938
     58 H           8.2700   -5.8500    0.0000 H       1  UNL1        0.0671
     59 H           7.7331   -7.1600    0.0000 H       1  UNL1        0.0648
     60 H           6.3301   -7.3500    0.0000 H       1  UNL1        0.0652
     61 H           5.4641   -6.2300    0.0000 H       1  UNL1        0.0741
     62 H           3.8015   -1.5650    0.0000 H       1  UNL1        0.0584
     63 H           3.0044   -1.5650    0.0000 H       1  UNL1        0.0584
     64 H           4.5981   -5.3500    0.0000 H       1  UNL1        0.2100
     65 H           3.4030   -4.6600    0.0000 H       1  UNL1        0.2100
     66 H           7.7275    2.5550    0.0000 H       1  UNL1        0.1138
     67 H           8.8355    0.6263    0.0000 H       1  UNL1        0.0384
     68 H           9.0066    1.4379    0.0000 H       1  UNL1        0.0384
     69 H           8.5991   -4.4200    0.0000 H       1  UNL1        0.2101
     70 H           8.2700   -0.8500    0.0000 H       1  UNL1        0.0660
     71 H           8.5991   -7.6600    0.0000 H       1  UNL1        0.2100
     72 H           7.4040   -8.3500    0.0000 H       1  UNL1        0.2100
     73 H           5.4641    0.7700    0.0000 H       1  UNL1        0.0722
     74 H           2.0000   -2.2300    0.0000 H       1  UNL1        0.2095
     75 H           5.8018    2.5483    0.0000 H       1  UNL1        0.1376
     76 H           3.7320   -6.8500    0.0000 H       1  UNL1        0.2951
     77 H           7.3258    3.7545    0.0000 H       1  UNL1        0.0679
     78 H           4.5981   -0.7300    0.0000 H       1  UNL1        0.2923
     79 H           6.9088    5.0295    0.0000 H       1  UNL1        0.0337
     80 H           6.7445    5.8094    0.0000 H       1  UNL1        0.0337
     81 HA          5.2800    6.5273    0.0000 H       1  UNL1        0.0617
     82 H           4.8801    3.5754    0.0000 H       1  UNL1        0.0641
     83 H           4.3015    6.3211    0.0000 H       1  UNL1        0.1471
     84 H           5.5295    8.3500    0.0000 H       1  UNL1        0.2951
     85 H           2.1519    5.3193    0.0000 H       1  UNL1        0.2954
@<TRIPOS>UNITY_ATOM_ATTR
14 1
charge -1
20 1
charge 1
@<TRIPOS>BOND
     1    22     1    1
     2    27     1    1
     3     2    25    1
     4     2    26    1
     5     3    27    1
     6     3    31    1
     7    25     4    1
     8     4    33    1
     9    23     5    1
    10     5    64    1
    11    24     6    1
    12     6    65    1
    13    28     7    1
    14     7    69    1
    15    29     8    1
    16     8    71    1
    17    30     9    1
    18     9    72    1
    19    10    32    1
    20    10    74    1
    21    11    38    1
    22    11    76    1
    23    12    38    2
    24    13    40    1
    25    13    78    1
    26    14    43   ar
    27    15    43   ar
    28    16    50    1
    29    16    84    1
    30    17    50    2
    31    18    51    1
    32    18    85    1
    33    19    51    2
    34    20    35    1
    35    20    37    1
    36    20    42    2
    37    21    47    1
    38    21    49    1
    39    21    83    1
    40    22    23    1
    41    22    25    1
    42    22    52    1
    43    23    24    1
    44    23    53    1
    45    24    26    1
    46    24    54    1
    47    25    55    1
    48    26    32    1
    49    26    56    1
    50    27    28    1
    51    27    57    1
    52    28    29    1
    53    28    58    1
    54    29    30    1
    55    29    59    1
    56    30    31    1
    57    30    60    1
    58    31    38    1
    59    31    61    1
    60    32    62    1
    61    32    63    1
    62    33    39   ar
    63    33    40   ar
    64    34    36    1
    65    34    37   ar
    66    34    39   ar
    67    35    36    1
    68    35    43    1
    69    35    66    1
    70    36    67    1
    71    36    68    1
    72    37    41   ar
    73    39    70    1
    74    40    41   ar
    75    41    73    1
    76    42    44    1
    77    42    75    1
    78    44    45    2
    79    44    77    1
    80    45    46    1
    81    45    48    1
    82    46    47    1
    83    46    79    1
    84    46    80    1
    85    47    50    1
    86    47    81    1
    87    48    49    2
    88    48    82    1
    89    49    51    1
