@<TRIPOS>MOLECULE
IMPHY016731
 28 27 0 0 0
SMALL
GASTEIGER

@<TRIPOS>ATOM
      1 O           3.7320   -1.2500    0.0000 O.3     1  UNL1       -0.3890
      2 O           4.5981    1.2500    0.0000 O.3     1  UNL1       -0.3890
      3 C           3.7320   -0.2500    0.0000 C.3     1  UNL1        0.0836
      4 C           4.5981    0.2500    0.0000 C.3     1  UNL1        0.0836
      5 C           2.8660    0.2500    0.0000 C.3     1  UNL1       -0.0182
      6 C           5.4641   -0.2500    0.0000 C.3     1  UNL1       -0.0182
      7 C           2.0000   -0.2500    0.0000 C.3     1  UNL1       -0.0602
      8 C           2.8660    1.2500    0.0000 C.3     1  UNL1       -0.0602
      9 C           6.3301    0.2500    0.0000 C.3     1  UNL1       -0.0602
     10 C           5.4641   -1.2500    0.0000 C.3     1  UNL1       -0.0602
     11 H           4.2690   -0.5600    0.0000 H       1  UNL1        0.0622
     12 H           5.1350    0.5600    0.0000 H       1  UNL1        0.0622
     13 H           2.8660   -0.3700    0.0000 H       1  UNL1        0.0321
     14 H           6.0010   -0.5600    0.0000 H       1  UNL1        0.0321
     15 H           1.6900    0.2869    0.0000 H       1  UNL1        0.0233
     16 H           1.4631   -0.5600    0.0000 H       1  UNL1        0.0233
     17 H           2.3100   -0.7869    0.0000 H       1  UNL1        0.0233
     18 H           3.4860    1.2500    0.0000 H       1  UNL1        0.0233
     19 H           2.8660    1.8700    0.0000 H       1  UNL1        0.0233
     20 H           2.2460    1.2500    0.0000 H       1  UNL1        0.0233
     21 H           6.6401   -0.2869    0.0000 H       1  UNL1        0.0233
     22 H           6.8671    0.5600    0.0000 H       1  UNL1        0.0233
     23 H           6.0201    0.7869    0.0000 H       1  UNL1        0.0233
     24 H           4.8441   -1.2500    0.0000 H       1  UNL1        0.0233
     25 H           5.4641   -1.8700    0.0000 H       1  UNL1        0.0233
     26 H           6.0841   -1.2500    0.0000 H       1  UNL1        0.0233
     27 H           3.1951   -1.5600    0.0000 H       1  UNL1        0.2099
     28 H           5.1350    1.5600    0.0000 H       1  UNL1        0.2099
@<TRIPOS>BOND
     1     1     3    1
     2     1    27    1
     3     2     4    1
     4     2    28    1
     5     3     4    1
     6     3     5    1
     7     3    11    1
     8     4     6    1
     9     4    12    1
    10     5     7    1
    11     5     8    1
    12     5    13    1
    13     6     9    1
    14     6    10    1
    15     6    14    1
    16     7    15    1
    17     7    16    1
    18     7    17    1
    19     8    18    1
    20     8    19    1
    21     8    20    1
    22     9    21    1
    23     9    22    1
    24     9    23    1
    25    10    24    1
    26    10    25    1
    27    10    26    1
