@<TRIPOS>MOLECULE
IMPHY006823
 97 102 0 0 0
SMALL
GASTEIGER

@<TRIPOS>ATOM
      1 O          10.0701   -0.0019    0.0000 O.2     1  UNL1       -0.2916
      2 O          13.9950   -2.6153    0.0000 O.3     1  UNL1       -0.5064
      3 O           9.6648    0.6168    0.0000 O.3     1  UNL1       -0.5063
      4 O           9.6648   -2.8473    0.0000 O.3     1  UNL1       -0.5063
      5 O          10.3708    1.7038    0.0000 O.3     1  UNL1       -0.5057
      6 O          15.7270    0.3847    0.0000 O.3     1  UNL1       -0.5066
      7 O           6.0812   -1.9200    0.0000 O.2     1  UNL1       -0.4544
      8 O          13.6260    2.8886    0.0000 O.3     1  UNL1       -0.5064
      9 O           2.5369   -2.1153    0.0000 O.3     1  UNL1       -0.5064
     10 C          11.3969   -1.1153    0.0000 C.3     1  UNL1        0.0399
     11 C          12.2629   -1.6153    0.0000 C.3     1  UNL1        0.0019
     12 C          10.5309   -1.6153    0.0000 C.3     1  UNL1        0.0198
     13 C          12.2629   -2.6153    0.0000 C.3     1  UNL1       -0.0244
     14 C          11.3969   -3.1153    0.0000 C.2     1  UNL1       -0.0753
     15 C          10.5309   -2.6153    0.0000 C.2     1  UNL1       -0.0767
     16 C          13.1289   -1.1153    0.0000 C.ar    1  UNL1       -0.0016
     17 C           9.6648   -1.1153    0.0000 C.ar    1  UNL1        0.0429
     18 C          11.0549   -0.1756    0.0000 C.2     1  UNL1        0.1712
     19 C          11.3969   -4.1153    0.0000 C.3     1  UNL1       -0.0437
     20 C          11.6977    0.5905    0.0000 C.ar    1  UNL1        0.0596
     21 C          13.9950   -1.6153    0.0000 C.ar    1  UNL1        0.1238
     22 C           9.1648   -0.2493    0.0000 C.ar    1  UNL1        0.1248
     23 C           9.1648   -1.9813    0.0000 C.ar    1  UNL1        0.1248
     24 C          13.1289   -0.1153    0.0000 C.ar    1  UNL1       -0.0514
     25 C           8.1648   -0.2493    0.0000 C.ar    1  UNL1       -0.0090
     26 C           8.1648   -1.9813    0.0000 C.ar    1  UNL1       -0.0090
     27 C          11.3556    1.5301    0.0000 C.ar    1  UNL1        0.1342
     28 C          14.8610   -1.1153    0.0000 C.ar    1  UNL1        0.0216
     29 C          13.9950    0.3847    0.0000 C.ar    1  UNL1       -0.0197
     30 C           7.6648   -1.1153    0.0000 C.ar    1  UNL1        0.0242
     31 C          12.6825    0.4168    0.0000 C.ar    1  UNL1       -0.0443
     32 C          14.8610   -0.1153    0.0000 C.ar    1  UNL1        0.1203
     33 C          11.9984    2.2962    0.0000 C.ar    1  UNL1        0.0398
     34 C          13.3253    1.1829    0.0000 C.ar    1  UNL1       -0.0190
     35 C           6.6648   -1.1153    0.0000 C.ar    1  UNL1        0.1365
     36 C          12.9832    2.1226    0.0000 C.ar    1  UNL1        0.1238
     37 C          11.6564    3.2359    0.0000 C.3     1  UNL1       -0.0023
     38 C           6.0812   -0.3105    0.0000 C.ar    1  UNL1       -0.0081
     39 C           5.1350   -0.6153    0.0000 C.ar    1  UNL1        0.0213
     40 C           5.1350   -1.6153    0.0000 C.ar    1  UNL1        0.1426
     41 C          10.6716    3.4095    0.0000 C.2     1  UNL1       -0.0807
     42 C           4.2690   -2.1153    0.0000 C.ar    1  UNL1        0.0405
     43 C           4.2690   -0.1153    0.0000 C.ar    1  UNL1       -0.0475
     44 C          10.3296    4.3492    0.0000 C.2     1  UNL1       -0.0793
     45 C           3.4030   -1.6153    0.0000 C.ar    1  UNL1        0.1238
     46 C           4.2690   -3.1153    0.0000 C.3     1  UNL1       -0.0023
     47 C           3.4030   -0.6153    0.0000 C.ar    1  UNL1       -0.0191
     48 C          10.9724    5.1153    0.0000 C.3     1  UNL1       -0.0440
     49 C           9.3448    4.5229    0.0000 C.3     1  UNL1       -0.0440
     50 C           3.4030   -3.6153    0.0000 C.2     1  UNL1       -0.0807
     51 C           3.4030   -4.6153    0.0000 C.2     1  UNL1       -0.0793
     52 C           2.5369   -5.1153    0.0000 C.3     1  UNL1       -0.0440
     53 C           4.2690   -5.1153    0.0000 C.3     1  UNL1       -0.0440
     54 H          11.8718   -0.7167    0.0000 H       1  UNL1        0.0396
     55 H          12.9990   -2.0403    0.0000 H       1  UNL1        0.0360
     56 H          10.5309   -0.7653    0.0000 H       1  UNL1        0.0401
     57 H          12.4750   -3.1979    0.0000 H       1  UNL1        0.0316
     58 H          12.8735   -2.5076    0.0000 H       1  UNL1        0.0316
     59 H           9.9939   -2.9253    0.0000 H       1  UNL1        0.0578
     60 H          10.7769   -4.1153    0.0000 H       1  UNL1        0.0274
     61 H          11.3969   -4.7353    0.0000 H       1  UNL1        0.0274
     62 H          12.0169   -4.1153    0.0000 H       1  UNL1        0.0274
     63 H          12.5920    0.1947    0.0000 H       1  UNL1        0.0623
     64 H           7.8548    0.2877    0.0000 H       1  UNL1        0.0661
     65 H           7.8548   -2.5182    0.0000 H       1  UNL1        0.0661
     66 H          15.3979   -1.4253    0.0000 H       1  UNL1        0.0691
     67 H          13.9950    1.0047    0.0000 H       1  UNL1        0.0654
     68 H          12.8945   -0.1658    0.0000 H       1  UNL1        0.0627
     69 H          14.5319   -2.9253    0.0000 H       1  UNL1        0.2921
     70 H           9.3548    1.1537    0.0000 H       1  UNL1        0.2921
     71 H           9.3548   -3.3843    0.0000 H       1  UNL1        0.2921
     72 H          13.9358    1.0752    0.0000 H       1  UNL1        0.0654
     73 H          12.2670    3.3436    0.0000 H       1  UNL1        0.0358
     74 H          11.6564    3.8559    0.0000 H       1  UNL1        0.0358
     75 H          10.1588    2.2864    0.0000 H       1  UNL1        0.2922
     76 H           6.2738    0.2788    0.0000 H       1  UNL1        0.0661
     77 H          16.2640    0.0747    0.0000 H       1  UNL1        0.2921
     78 H          10.2731    2.9346    0.0000 H       1  UNL1        0.0575
     79 H          14.2366    2.7809    0.0000 H       1  UNL1        0.2921
     80 H           4.2690    0.5047    0.0000 H       1  UNL1        0.0626
     81 H           4.4810   -3.6979    0.0000 H       1  UNL1        0.0358
     82 H           4.8796   -3.0076    0.0000 H       1  UNL1        0.0358
     83 H           2.8660   -0.3053    0.0000 H       1  UNL1        0.0654
     84 H           9.4524    5.1335    0.0000 H       1  UNL1        0.0274
     85 H           8.7342    4.6305    0.0000 H       1  UNL1        0.0274
     86 H           9.2371    3.9123    0.0000 H       1  UNL1        0.0274
     87 H          11.4473    4.7168    0.0000 H       1  UNL1        0.0274
     88 H          11.3709    5.5902    0.0000 H       1  UNL1        0.0274
     89 H          10.4974    5.5138    0.0000 H       1  UNL1        0.0274
     90 H           2.8660   -3.3053    0.0000 H       1  UNL1        0.0575
     91 H           2.0000   -1.8053    0.0000 H       1  UNL1        0.2921
     92 H           3.9590   -5.6522    0.0000 H       1  UNL1        0.0274
     93 H           4.8059   -5.4253    0.0000 H       1  UNL1        0.0274
     94 H           4.5790   -4.5783    0.0000 H       1  UNL1        0.0274
     95 H           2.2269   -4.5783    0.0000 H       1  UNL1        0.0274
     96 H           2.0000   -5.4253    0.0000 H       1  UNL1        0.0274
     97 H           2.8469   -5.6522    0.0000 H       1  UNL1        0.0274
@<TRIPOS>BOND
     1     1    18    2
     2     2    21    1
     3     2    69    1
     4     3    22    1
     5     3    70    1
     6     4    23    1
     7     4    71    1
     8     5    27    1
     9     5    75    1
    10     6    32    1
    11     6    77    1
    12     7    35   ar
    13     7    40   ar
    14     8    36    1
    15     8    79    1
    16     9    45    1
    17     9    91    1
    18    10    11    1
    19    10    12    1
    20    10    18    1
    21    10    54    1
    22    11    13    1
    23    11    16    1
    24    11    55    1
    25    12    15    1
    26    12    17    1
    27    12    56    1
    28    13    14    1
    29    13    57    1
    30    13    58    1
    31    14    15    2
    32    14    19    1
    33    15    59    1
    34    16    21   ar
    35    16    24   ar
    36    17    22   ar
    37    17    23   ar
    38    18    20    1
    39    19    60    1
    40    19    61    1
    41    19    62    1
    42    20    27   ar
    43    20    31   ar
    44    21    28   ar
    45    22    25   ar
    46    23    26   ar
    47    24    29   ar
    48    24    63    1
    49    25    30   ar
    50    25    64    1
    51    26    30   ar
    52    26    65    1
    53    27    33   ar
    54    28    32   ar
    55    28    66    1
    56    29    32   ar
    57    29    67    1
    58    30    35    1
    59    31    34   ar
    60    31    68    1
    61    33    36   ar
    62    33    37    1
    63    34    36   ar
    64    34    72    1
    65    35    38   ar
    66    37    41    1
    67    37    73    1
    68    37    74    1
    69    38    39   ar
    70    38    76    1
    71    39    40   ar
    72    39    43   ar
    73    40    42   ar
    74    41    44    2
    75    41    78    1
    76    42    45   ar
    77    42    46    1
    78    43    47   ar
    79    43    80    1
    80    44    48    1
    81    44    49    1
    82    45    47   ar
    83    46    50    1
    84    46    81    1
    85    46    82    1
    86    47    83    1
    87    48    87    1
    88    48    88    1
    89    48    89    1
    90    49    84    1
    91    49    85    1
    92    49    86    1
    93    50    51    2
    94    50    90    1
    95    51    52    1
    96    51    53    1
    97    52    95    1
    98    52    96    1
    99    52    97    1
   100    53    92    1
   101    53    93    1
   102    53    94    1
