@<TRIPOS>MOLECULE
IMPHY012048
 29 28 0 0 0
SMALL
GASTEIGER

@<TRIPOS>ATOM
      1 O           6.3301    1.2500    0.0000 O.3     1  UNL1       -0.4546
      2 O           3.7320    0.7500    0.0000 O.3     1  UNL1       -0.4610
      3 O           4.5981   -0.7500    0.0000 O.3     1  UNL1       -0.4610
      4 O           7.1962   -0.2500    0.0000 O.2     1  UNL1       -0.2512
      5 O           2.8660    2.2500    0.0000 O.2     1  UNL1       -0.2512
      6 O           5.4641   -2.2500    0.0000 O.2     1  UNL1       -0.2512
      7 C           5.4641    0.7500    0.0000 C.3     1  UNL1        0.1706
      8 C           4.5981    1.2500    0.0000 C.3     1  UNL1        0.1325
      9 C           5.4641   -0.2500    0.0000 C.3     1  UNL1        0.1325
     10 C           7.1962    0.7500    0.0000 C.2     1  UNL1        0.3044
     11 C           2.8660    1.2500    0.0000 C.2     1  UNL1        0.3041
     12 C           4.5981   -1.7500    0.0000 C.2     1  UNL1        0.3041
     13 C           8.0622    1.2500    0.0000 C.3     1  UNL1        0.0332
     14 C           2.0000    0.7500    0.0000 C.3     1  UNL1        0.0332
     15 C           3.7320   -2.2500    0.0000 C.3     1  UNL1        0.0332
     16 H           5.4641    1.3700    0.0000 H       1  UNL1        0.0803
     17 H           4.9966    1.7250    0.0000 H       1  UNL1        0.0736
     18 H           4.1996    1.7250    0.0000 H       1  UNL1        0.0736
     19 H           5.6762   -0.8326    0.0000 H       1  UNL1        0.0736
     20 H           6.0747   -0.1423    0.0000 H       1  UNL1        0.0736
     21 H           8.3722    0.7131    0.0000 H       1  UNL1        0.0342
     22 H           8.5991    1.5600    0.0000 H       1  UNL1        0.0342
     23 H           7.7522    1.7869    0.0000 H       1  UNL1        0.0342
     24 H           1.6900    1.2869    0.0000 H       1  UNL1        0.0342
     25 H           1.4631    0.4400    0.0000 H       1  UNL1        0.0342
     26 H           2.3100    0.2131    0.0000 H       1  UNL1        0.0342
     27 H           3.4220   -1.7131    0.0000 H       1  UNL1        0.0342
     28 H           3.1951   -2.5600    0.0000 H       1  UNL1        0.0342
     29 H           4.0420   -2.7869    0.0000 H       1  UNL1        0.0342
@<TRIPOS>BOND
     1     1     7    1
     2     1    10    1
     3     2     8    1
     4     2    11    1
     5     3     9    1
     6     3    12    1
     7     4    10    2
     8     5    11    2
     9     6    12    2
    10     7     8    1
    11     7     9    1
    12     7    16    1
    13     8    17    1
    14     8    18    1
    15     9    19    1
    16     9    20    1
    17    10    13    1
    18    11    14    1
    19    12    15    1
    20    13    21    1
    21    13    22    1
    22    13    23    1
    23    14    24    1
    24    14    25    1
    25    14    26    1
    26    15    27    1
    27    15    28    1
    28    15    29    1
