@<TRIPOS>MOLECULE
IMPHY004472
 42 44 0 0 0
SMALL
GASTEIGER

@<TRIPOS>ATOM
      1 O           7.2241   -3.6297    0.0000 O.3     1  UNL1       -0.4815
      2 O           3.7320   -3.5950    0.0000 O.3     1  UNL1       -0.5059
      3 O           2.8660   -2.0950    0.0000 O.2     1  UNL1       -0.2872
      4 O           2.8660    3.9050    0.0000 O.3     1  UNL1       -0.5068
      5 C           8.1301   -3.1158    0.0000 C.3     1  UNL1        0.1235
      6 C           8.1301   -2.0742    0.0000 C.2     1  UNL1       -0.0409
      7 C           6.3301   -3.0950    0.0000 C.ar    1  UNL1        0.1323
      8 C           6.3301   -2.0950    0.0000 C.ar    1  UNL1        0.0174
      9 C           9.1301   -3.1197    0.0000 C.3     1  UNL1       -0.0215
     10 C           8.6268   -3.9838    0.0000 C.3     1  UNL1       -0.0215
     11 C           7.2241   -1.5603    0.0000 C.2     1  UNL1       -0.0513
     12 C           5.4641   -1.5950    0.0000 C.ar    1  UNL1       -0.0368
     13 C           5.4641   -3.5950    0.0000 C.ar    1  UNL1        0.0229
     14 C           4.5981   -2.0950    0.0000 C.ar    1  UNL1        0.0638
     15 C           4.5981   -3.0950    0.0000 C.ar    1  UNL1        0.1311
     16 C           3.7320   -1.5950    0.0000 C.2     1  UNL1        0.1896
     17 C           3.7320   -0.5950    0.0000 C.2     1  UNL1       -0.0137
     18 C           2.8660   -0.0950    0.0000 C.2     1  UNL1       -0.0510
     19 C           2.8660    0.9050    0.0000 C.ar    1  UNL1       -0.0247
     20 C           3.7320    1.4050    0.0000 C.ar    1  UNL1       -0.0511
     21 C           2.0000    1.4050    0.0000 C.ar    1  UNL1       -0.0511
     22 C           3.7320    2.4050    0.0000 C.ar    1  UNL1       -0.0196
     23 C           2.0000    2.4050    0.0000 C.ar    1  UNL1       -0.0196
     24 C           2.8660    2.9050    0.0000 C.ar    1  UNL1        0.1169
     25 H           8.6659   -1.7621    0.0000 H       1  UNL1        0.0611
     26 H           9.1277   -3.7397    0.0000 H       1  UNL1        0.0271
     27 H           8.0887   -4.2917    0.0000 H       1  UNL1        0.0271
     28 H           8.9347   -4.5219    0.0000 H       1  UNL1        0.0271
     29 H           9.1649   -3.6758    0.0000 H       1  UNL1        0.0271
     30 H           9.7501   -3.1221    0.0000 H       1  UNL1        0.0271
     31 H           9.1325   -2.4997    0.0000 H       1  UNL1        0.0271
     32 H           7.2169   -0.9404    0.0000 H       1  UNL1        0.0623
     33 H           5.4641   -0.9750    0.0000 H       1  UNL1        0.0633
     34 H           5.4641   -4.2150    0.0000 H       1  UNL1        0.0691
     35 H           4.2690   -0.2850    0.0000 H       1  UNL1        0.0656
     36 H           3.7320   -4.2150    0.0000 H       1  UNL1        0.2922
     37 H           2.3291   -0.4050    0.0000 H       1  UNL1        0.0625
     38 H           4.2690    1.0950    0.0000 H       1  UNL1        0.0625
     39 H           1.4631    1.0950    0.0000 H       1  UNL1        0.0625
     40 H           4.2690    2.7150    0.0000 H       1  UNL1        0.0654
     41 H           1.4631    2.7150    0.0000 H       1  UNL1        0.0654
     42 H           2.3291    4.2150    0.0000 H       1  UNL1        0.2921
@<TRIPOS>BOND
     1     1     5    1
     2     1     7    1
     3     2    15    1
     4     2    36    1
     5     3    16    2
     6     4    24    1
     7     4    42    1
     8     5     6    1
     9     5     9    1
    10     5    10    1
    11     6    11    2
    12     6    25    1
    13     7     8   ar
    14     7    13   ar
    15     8    11    1
    16     8    12   ar
    17     9    26    1
    18     9    30    1
    19     9    31    1
    20    10    27    1
    21    10    28    1
    22    10    29    1
    23    11    32    1
    24    12    14   ar
    25    12    33    1
    26    13    15   ar
    27    13    34    1
    28    14    15   ar
    29    14    16    1
    30    16    17    1
    31    17    18    2
    32    17    35    1
    33    18    19    1
    34    18    37    1
    35    19    20   ar
    36    19    21   ar
    37    20    22   ar
    38    20    38    1
    39    21    23   ar
    40    21    39    1
    41    22    24   ar
    42    22    40    1
    43    23    24   ar
    44    23    41    1
