@<TRIPOS>MOLECULE
IMPHY005240
 143 150 0 0 0
SMALL
GASTEIGER

@<TRIPOS>ATOM
      1 O           6.8671   -1.6941    0.0000 O.3     1  UNL1       -0.3449
      2 O           8.6209    7.5853    0.0000 O.3     1  UNL1       -0.4802
      3 O           9.5042    6.0954    0.0000 O.2     1  UNL1       -0.2504
      4 O           5.1350   -1.6941    0.0000 O.3     1  UNL1       -0.3405
      5 O           6.8671   -3.6941    0.0000 O.3     1  UNL1       -0.3377
      6 O           5.1350   -4.6941    0.0000 O.3     1  UNL1       -0.3864
      7 O           3.4030   -3.6941    0.0000 O.3     1  UNL1       -0.3865
      8 O           6.0010   -5.1941    0.0000 O.3     1  UNL1       -0.3405
      9 O           2.5369   -2.1941    0.0000 O.3     1  UNL1       -0.3924
     10 O           8.5991   -4.6941    0.0000 O.3     1  UNL1       -0.3378
     11 O           8.5991   -6.6941    0.0000 O.3     1  UNL1       -0.3864
     12 O           6.8671   -7.6941    0.0000 O.3     1  UNL1       -0.3865
     13 O           9.4651   -6.1941    0.0000 O.3     1  UNL1       -0.3431
     14 O           4.2690   -6.1941    0.0000 O.3     1  UNL1       -0.3924
     15 O          10.3312   -3.6941    0.0000 O.3     1  UNL1       -0.3841
     16 O          12.0632   -4.6941    0.0000 O.3     1  UNL1       -0.3864
     17 O          12.0632   -6.6941    0.0000 O.3     1  UNL1       -0.3866
     18 C           7.7681    3.0061    0.0000 C.3     1  UNL1       -0.0194
     19 C           6.9040    2.5027    0.0000 C.3     1  UNL1       -0.0257
     20 C           6.8920    1.4612    0.0000 C.3     1  UNL1       -0.0250
     21 C           7.7643    4.0061    0.0000 C.3     1  UNL1       -0.0051
     22 C           7.7920    0.9369    0.0000 C.3     1  UNL1       -0.0278
     23 C           8.6801    2.5027    0.0000 C.3     1  UNL1       -0.0463
     24 C           7.8046   -0.1480    0.0000 C.3     1  UNL1       -0.0052
     25 C           8.6921    1.4612    0.0000 C.3     1  UNL1       -0.0486
     26 C           6.8963    4.5027    0.0000 C.2     1  UNL1       -0.0629
     27 C           6.0361    2.9994    0.0000 C.3     1  UNL1       -0.0306
     28 C           5.9421    0.9369    0.0000 C.3     1  UNL1       -0.0447
     29 C           6.8762    5.5442    0.0000 C.3     1  UNL1       -0.0031
     30 C           8.6723    4.5164    0.0000 C.3     1  UNL1       -0.0424
     31 C           7.7722    6.0754    0.0000 C.3     1  UNL1        0.0741
     32 C           8.7522    3.1835    0.0000 C.3     1  UNL1       -0.0585
     33 C           6.8671   -0.6941    0.0000 C.3     1  UNL1        0.0672
     34 C           8.6763    5.5580    0.0000 C.3     1  UNL1       -0.0359
     35 C           6.0279    1.9645    0.0000 C.3     1  UNL1       -0.0590
     36 C           5.9295   -0.1480    0.0000 C.3     1  UNL1       -0.0255
     37 C           6.0322    3.9994    0.0000 C.2     1  UNL1       -0.0836
     38 C           8.7497    3.8362    0.0000 C.3     1  UNL1       -0.0553
     39 C           5.9223    6.0611    0.0000 C.3     1  UNL1       -0.0403
     40 C           7.7764    7.1604    0.0000 C.3     1  UNL1       -0.0362
     41 C           5.9014    7.1459    0.0000 C.3     1  UNL1       -0.0343
     42 C           8.8046   -0.1403    0.0000 C.3     1  UNL1       -0.0572
     43 C           8.3113   -1.0102    0.0000 C.3     1  UNL1       -0.0572
     44 C           6.8347    7.6992    0.0000 C.3     1  UNL1       -0.0468
     45 C           8.6324    6.5854    0.0000 C.2     1  UNL1        0.3115
     46 C           5.3881    8.0041    0.0000 C.3     1  UNL1       -0.0598
     47 C           4.9015    7.1305    0.0000 C.3     1  UNL1       -0.0598
     48 C           6.0010   -2.1941    0.0000 C.3     1  UNL1        0.1886
     49 C           6.0010   -3.1941    0.0000 C.3     1  UNL1        0.1406
     50 C           5.1350   -3.6941    0.0000 C.3     1  UNL1        0.1144
     51 C           4.2690   -2.1941    0.0000 C.3     1  UNL1        0.1130
     52 C           4.2690   -3.1941    0.0000 C.3     1  UNL1        0.1119
     53 C           3.4030   -1.6941    0.0000 C.3     1  UNL1        0.0730
     54 C           6.8671   -4.6941    0.0000 C.3     1  UNL1        0.1889
     55 C           7.7331   -5.1941    0.0000 C.3     1  UNL1        0.1406
     56 C           7.7331   -6.1941    0.0000 C.3     1  UNL1        0.1144
     57 C           6.0010   -6.1941    0.0000 C.3     1  UNL1        0.1130
     58 C           6.8671   -6.6941    0.0000 C.3     1  UNL1        0.1119
     59 C           5.1350   -6.6941    0.0000 C.3     1  UNL1        0.0730
     60 C           9.4651   -5.1941    0.0000 C.3     1  UNL1        0.1884
     61 C          10.3312   -4.6941    0.0000 C.3     1  UNL1        0.1341
     62 C          11.1972   -5.1941    0.0000 C.3     1  UNL1        0.1140
     63 C          10.3312   -6.6941    0.0000 C.3     1  UNL1        0.0873
     64 C          11.1972   -6.1941    0.0000 C.3     1  UNL1        0.1095
     65 C          10.3312   -7.6941    0.0000 C.3     1  UNL1       -0.0361
     66 H           7.6385    2.0749    0.0000 H       1  UNL1        0.0315
     67 H           8.5314    0.5176    0.0000 H       1  UNL1        0.0312
     68 H           9.2921    2.4037    0.0000 H       1  UNL1        0.0271
     69 H           8.8824    3.0888    0.0000 H       1  UNL1        0.0271
     70 H           8.9079    0.8800    0.0000 H       1  UNL1        0.0268
     71 H           9.3017    1.5743    0.0000 H       1  UNL1        0.0268
     72 H           5.4251    3.1047    0.0000 H       1  UNL1        0.0310
     73 H           5.8263    2.4160    0.0000 H       1  UNL1        0.0310
     74 H           5.7398    1.5230    0.0000 H       1  UNL1        0.0271
     75 H           5.3300    0.8379    0.0000 H       1  UNL1        0.0271
     76 H           6.1502    5.1023    0.0000 H       1  UNL1        0.0357
     77 H           8.8791    3.9319    0.0000 H       1  UNL1        0.0274
     78 H           9.2836    4.6202    0.0000 H       1  UNL1        0.0274
     79 H           8.8623    2.5734    0.0000 H       1  UNL1        0.0235
     80 H           9.3624    3.2936    0.0000 H       1  UNL1        0.0235
     81 H           8.6422    3.7937    0.0000 H       1  UNL1        0.0235
     82 H           7.4046   -1.0031    0.0000 H       1  UNL1        0.0602
     83 H           9.2868    5.4496    0.0000 H       1  UNL1        0.0276
     84 H           8.8876    6.1409    0.0000 H       1  UNL1        0.0276
     85 H           6.3400    2.5003    0.0000 H       1  UNL1        0.0235
     86 H           5.4922    2.2766    0.0000 H       1  UNL1        0.0235
     87 H           5.7158    1.4288    0.0000 H       1  UNL1        0.0235
     88 H           5.3199   -0.0349    0.0000 H       1  UNL1        0.0290
     89 H           5.7137   -0.7293    0.0000 H       1  UNL1        0.0290
     90 H           5.4941    4.3073    0.0000 H       1  UNL1        0.0572
     91 H           8.6444    3.2252    0.0000 H       1  UNL1        0.0238
     92 H           9.3607    3.7309    0.0000 H       1  UNL1        0.0238
     93 H           8.8550    4.4472    0.0000 H       1  UNL1        0.0238
     94 H           5.3095    6.1554    0.0000 H       1  UNL1        0.0276
     95 H           5.7246    5.4735    0.0000 H       1  UNL1        0.0276
     96 H           8.3869    7.0519    0.0000 H       1  UNL1        0.0276
     97 H           7.9877    7.7433    0.0000 H       1  UNL1        0.0276
     98 H           7.7767   -1.3243    0.0000 H       1  UNL1        0.0236
     99 H           8.6254   -1.5447    0.0000 H       1  UNL1        0.0236
    100 H           8.8094   -0.7603    0.0000 H       1  UNL1        0.0236
    101 H           9.4246   -0.1355    0.0000 H       1  UNL1        0.0236
    102 H           8.7998    0.4797    0.0000 H       1  UNL1        0.0236
    103 H           8.8458   -0.6960    0.0000 H       1  UNL1        0.0236
    104 H           7.2302    8.1767    0.0000 H       1  UNL1        0.0271
    105 H           6.4319    8.1706    0.0000 H       1  UNL1        0.0271
    106 H           5.9202    8.3224    0.0000 H       1  UNL1        0.0235
    107 H           5.0699    8.5362    0.0000 H       1  UNL1        0.0235
    108 H           4.8560    7.6859    0.0000 H       1  UNL1        0.0235
    109 H           4.8920    7.7504    0.0000 H       1  UNL1        0.0235
    110 H           4.2816    7.1209    0.0000 H       1  UNL1        0.0235
    111 H           4.9111    6.5106    0.0000 H       1  UNL1        0.0235
    112 H           6.0010   -1.5741    0.0000 H       1  UNL1        0.0938
    113 H           9.1542    7.9015    0.0000 H       1  UNL1        0.2951
    114 H           6.0010   -3.8141    0.0000 H       1  UNL1        0.0675
    115 H           4.5981   -4.0041    0.0000 H       1  UNL1        0.0648
    116 H           4.2690   -1.5741    0.0000 H       1  UNL1        0.0647
    117 H           3.7320   -2.8841    0.0000 H       1  UNL1        0.0647
    118 H           3.8015   -1.2192    0.0000 H       1  UNL1        0.0584
    119 H           3.0044   -1.2192    0.0000 H       1  UNL1        0.0584
    120 H           7.4040   -4.3841    0.0000 H       1  UNL1        0.0938
    121 H           4.5981   -5.0041    0.0000 H       1  UNL1        0.2100
    122 H           3.4030   -4.3141    0.0000 H       1  UNL1        0.2100
    123 H           8.2700   -5.5041    0.0000 H       1  UNL1        0.0675
    124 H           7.7331   -6.8141    0.0000 H       1  UNL1        0.0648
    125 H           2.0000   -1.8841    0.0000 H       1  UNL1        0.2095
    126 H           5.4641   -5.8841    0.0000 H       1  UNL1        0.0647
    127 H           6.3301   -7.0041    0.0000 H       1  UNL1        0.0647
    128 H           4.7365   -7.1691    0.0000 H       1  UNL1        0.0584
    129 H           5.5335   -7.1691    0.0000 H       1  UNL1        0.0584
    130 H           9.4651   -4.5741    0.0000 H       1  UNL1        0.0938
    131 H           8.5991   -7.3141    0.0000 H       1  UNL1        0.2100
    132 H           6.3301   -8.0041    0.0000 H       1  UNL1        0.2100
    133 H          10.8681   -4.3841    0.0000 H       1  UNL1        0.0671
    134 H          11.7341   -5.5041    0.0000 H       1  UNL1        0.0648
    135 H           3.7320   -6.5041    0.0000 H       1  UNL1        0.2095
    136 H           9.7942   -7.0041    0.0000 H       1  UNL1        0.0621
    137 H          11.1972   -6.8141    0.0000 H       1  UNL1        0.0646
    138 H          10.8681   -3.3841    0.0000 H       1  UNL1        0.2101
    139 H           9.7112   -7.6941    0.0000 H       1  UNL1        0.0255
    140 H          10.3312   -8.3141    0.0000 H       1  UNL1        0.0255
    141 H          10.9512   -7.6941    0.0000 H       1  UNL1        0.0255
    142 H          12.0632   -4.0741    0.0000 H       1  UNL1        0.2100
    143 H          12.0632   -7.3141    0.0000 H       1  UNL1        0.2100
@<TRIPOS>BOND
     1    33     1    1
     2    48     1    1
     3     2    45    1
     4     2   113    1
     5     3    45    2
     6     4    48    1
     7     4    51    1
     8    49     5    1
     9    54     5    1
    10    50     6    1
    11     6   121    1
    12    52     7    1
    13     7   122    1
    14     8    54    1
    15     8    57    1
    16     9    53    1
    17     9   125    1
    18    55    10    1
    19    60    10    1
    20    56    11    1
    21    11   131    1
    22    58    12    1
    23    12   132    1
    24    13    60    1
    25    13    63    1
    26    14    59    1
    27    14   135    1
    28    61    15    1
    29    15   138    1
    30    62    16    1
    31    16   142    1
    32    64    17    1
    33    17   143    1
    34    18    19    1
    35    18    21    1
    36    18    23    1
    37    18    32    1
    38    19    20    1
    39    19    27    1
    40    19    66    1
    41    20    22    1
    42    20    28    1
    43    20    35    1
    44    21    26    1
    45    21    30    1
    46    21    38    1
    47    22    24    1
    48    22    25    1
    49    22    67    1
    50    23    25    1
    51    23    68    1
    52    23    69    1
    53    24    33    1
    54    24    42    1
    55    24    43    1
    56    25    70    1
    57    25    71    1
    58    26    29    1
    59    26    37    2
    60    27    37    1
    61    27    72    1
    62    27    73    1
    63    28    36    1
    64    28    74    1
    65    28    75    1
    66    29    31    1
    67    29    39    1
    68    29    76    1
    69    30    34    1
    70    30    77    1
    71    30    78    1
    72    31    34    1
    73    31    40    1
    74    31    45    1
    75    32    79    1
    76    32    80    1
    77    32    81    1
    78    33    36    1
    79    33    82    1
    80    34    83    1
    81    34    84    1
    82    35    85    1
    83    35    86    1
    84    35    87    1
    85    36    88    1
    86    36    89    1
    87    37    90    1
    88    38    91    1
    89    38    92    1
    90    38    93    1
    91    39    41    1
    92    39    94    1
    93    39    95    1
    94    40    44    1
    95    40    96    1
    96    40    97    1
    97    41    44    1
    98    41    46    1
    99    41    47    1
   100    42   100    1
   101    42   101    1
   102    42   102    1
   103    43    98    1
   104    43    99    1
   105    43   103    1
   106    44   104    1
   107    44   105    1
   108    46   106    1
   109    46   107    1
   110    46   108    1
   111    47   109    1
   112    47   110    1
   113    47   111    1
   114    48    49    1
   115    48   112    1
   116    49    50    1
   117    49   114    1
   118    50    52    1
   119    50   115    1
   120    51    52    1
   121    51    53    1
   122    51   116    1
   123    52   117    1
   124    53   118    1
   125    53   119    1
   126    54    55    1
   127    54   120    1
   128    55    56    1
   129    55   123    1
   130    56    58    1
   131    56   124    1
   132    57    58    1
   133    57    59    1
   134    57   126    1
   135    58   127    1
   136    59   128    1
   137    59   129    1
   138    60    61    1
   139    60   130    1
   140    61    62    1
   141    61   133    1
   142    62    64    1
   143    62   134    1
   144    63    64    1
   145    63    65    1
   146    63   136    1
   147    64   137    1
   148    65   139    1
   149    65   140    1
   150    65   141    1
