@<TRIPOS>MOLECULE
IMPHY010043
 15 14 0 0 0
SMALL
GASTEIGER

@<TRIPOS>ATOM
      1 O           2.5369    0.8100    0.0000 O.3     1  UNL1       -0.3906
      2 O           3.4030   -0.6900    0.0000 O.3     1  UNL1       -0.3906
      3 N           6.8671    0.3100    0.0000 N.1     1  UNL1       -0.1915
      4 C           4.2690    0.8100    0.0000 C.2     1  UNL1       -0.0093
      5 C           3.4030    1.3100    0.0000 C.3     1  UNL1        0.0683
      6 C           4.2690   -0.1900    0.0000 C.3     1  UNL1        0.0683
      7 C           5.1350    1.3100    0.0000 C.2     1  UNL1        0.0189
      8 C           6.0010    0.8100    0.0000 C.1     1  UNL1        0.0915
      9 H           3.8015    1.7850    0.0000 H       1  UNL1        0.0605
     10 H           3.0044    1.7850    0.0000 H       1  UNL1        0.0605
     11 H           4.4810   -0.7726    0.0000 H       1  UNL1        0.0605
     12 H           4.8796   -0.0823    0.0000 H       1  UNL1        0.0605
     13 H           5.1350    1.9300    0.0000 H       1  UNL1        0.0734
     14 H           2.0000    1.1200    0.0000 H       1  UNL1        0.2098
     15 H           3.4030   -1.3100    0.0000 H       1  UNL1        0.2098
@<TRIPOS>BOND
     1     1     5    1
     2     1    14    1
     3     2     6    1
     4     2    15    1
     5     3     8    3
     6     4     5    1
     7     4     6    1
     8     4     7    2
     9     5     9    1
    10     5    10    1
    11     6    11    1
    12     6    12    1
    13     7     8    1
    14     7    13    1
