@<TRIPOS>MOLECULE
IMPHY012688
 42 46 0 0 0
SMALL
GASTEIGER

@<TRIPOS>ATOM
      1 O           8.6480    2.5266    0.0000 O.2     1  UNL1       -0.2670
      2 O           7.5596   -2.7134    0.0000 O.3     1  UNL1       -0.3874
      3 N           6.9654    1.9766    0.0000 N.ar    1  UNL1       -0.3059
      4 N           4.5124    0.8591    0.0000 N.ar    1  UNL1       -0.3528
      5 N           9.7248   -0.4509    0.0000 N.ar    1  UNL1       -0.2621
      6 C           5.0091    2.3924    0.0000 C.ar    1  UNL1       -0.0113
      7 C           5.6782    3.1355    0.0000 C.3     1  UNL1       -0.0069
      8 C           5.3181    1.4413    0.0000 C.ar    1  UNL1        0.0674
      9 C           6.6564    2.9276    0.0000 C.3     1  UNL1        0.0308
     10 C           6.2962    1.2334    0.0000 C.ar    1  UNL1        0.0691
     11 C           4.0150    2.3898    0.0000 C.ar    1  UNL1        0.0035
     12 C           3.7086    1.4441    0.0000 C.ar    1  UNL1        0.0472
     13 C           6.6028    0.2379    0.0000 C.ar    1  UNL1       -0.0277
     14 C           7.6200    0.0135    0.0000 C.ar    1  UNL1       -0.0022
     15 C           7.9875    1.7757    0.0000 C.ar    1  UNL1        0.2610
     16 C           8.3170    0.7876    0.0000 C.ar    1  UNL1        0.0651
     17 C           7.9393   -1.0234    0.0000 C.ar    1  UNL1        0.0066
     18 C           3.3334    3.1693    0.0000 C.ar    1  UNL1       -0.0523
     19 C           2.6994    1.2124    0.0000 C.ar    1  UNL1       -0.0378
     20 C           7.2616   -1.7588    0.0000 C.3     1  UNL1        0.0793
     21 C           9.3816    0.5784    0.0000 C.ar    1  UNL1        0.0405
     22 C           2.3191    2.9609    0.0000 C.ar    1  UNL1       -0.0611
     23 C           8.9988   -1.2572    0.0000 C.ar    1  UNL1        0.0338
     24 C           2.0000    1.9759    0.0000 C.ar    1  UNL1       -0.0598
     25 C           6.2860   -1.5396    0.0000 C.3     1  UNL1       -0.0347
     26 H           5.9105    3.7104    0.0000 H       1  UNL1        0.0331
     27 H           5.1524    3.4641    0.0000 H       1  UNL1        0.0331
     28 H           7.2703    3.0139    0.0000 H       1  UNL1        0.0496
     29 H           6.6780    3.5472    0.0000 H       1  UNL1        0.0496
     30 H           4.5113    0.2391    0.0000 H       1  UNL1        0.1660
     31 H           6.1826   -0.2180    0.0000 H       1  UNL1        0.0645
     32 H           3.5313    3.7569    0.0000 H       1  UNL1        0.0624
     33 H           2.5152    0.6204    0.0000 H       1  UNL1        0.0638
     34 H           7.8666   -1.8947    0.0000 H       1  UNL1        0.0641
     35 H           9.7911    1.0439    0.0000 H       1  UNL1        0.0837
     36 H           1.9056    3.4229    0.0000 H       1  UNL1        0.0618
     37 H           9.1881   -1.8476    0.0000 H       1  UNL1        0.0833
     38 H           1.3942    1.8441    0.0000 H       1  UNL1        0.0618
     39 H           6.4219   -0.9347    0.0000 H       1  UNL1        0.0258
     40 H           5.6810   -1.4037    0.0000 H       1  UNL1        0.0258
     41 H           6.1500   -2.1445    0.0000 H       1  UNL1        0.0258
     42 H           7.1395   -3.1693    0.0000 H       1  UNL1        0.2102
@<TRIPOS>BOND
     1     1    15    2
     2     2    20    1
     3     2    42    1
     4     3     9    1
     5     3    10   ar
     6     3    15   ar
     7     4     8   ar
     8     4    12   ar
     9     4    30    1
    10     5    21   ar
    11     5    23   ar
    12     6     7    1
    13     6     8   ar
    14     6    11   ar
    15     7     9    1
    16     7    26    1
    17     7    27    1
    18     8    10    1
    19     9    28    1
    20     9    29    1
    21    10    13   ar
    22    11    12   ar
    23    11    18   ar
    24    12    19   ar
    25    13    14   ar
    26    13    31    1
    27    14    16   ar
    28    14    17   ar
    29    15    16   ar
    30    16    21   ar
    31    17    20    1
    32    17    23   ar
    33    18    22   ar
    34    18    32    1
    35    19    24   ar
    36    19    33    1
    37    20    25    1
    38    20    34    1
    39    21    35    1
    40    22    24   ar
    41    22    36    1
    42    23    37    1
    43    24    38    1
    44    25    39    1
    45    25    40    1
    46    25    41    1
