@<TRIPOS>MOLECULE
IMPHY016018
 27 27 0 0 0
SMALL
GASTEIGER

@<TRIPOS>ATOM
      1 O           2.0000    0.7500    0.0000 O.2     1  UNL1       -0.2968
      2 C           3.7320   -1.2500    0.0000 C.3     1  UNL1       -0.0372
      3 C           4.5981   -0.7500    0.0000 C.3     1  UNL1       -0.0491
      4 C           3.7320    0.7500    0.0000 C.3     1  UNL1        0.0380
      5 C           4.5981    0.2500    0.0000 C.3     1  UNL1       -0.0395
      6 C           2.8660   -0.7500    0.0000 C.3     1  UNL1        0.0090
      7 C           2.8660    0.2500    0.0000 C.2     1  UNL1        0.1406
      8 C           3.7320   -2.2500    0.0000 C.3     1  UNL1       -0.0620
      9 C           3.7320    1.7500    0.0000 C.2     1  UNL1       -0.0695
     10 C           4.5981    2.2500    0.0000 C.3     1  UNL1       -0.0434
     11 C           2.8660    2.2500    0.0000 C.2     1  UNL1       -0.0990
     12 H           4.2690   -1.5600    0.0000 H       1  UNL1        0.0302
     13 H           4.8101   -1.3326    0.0000 H       1  UNL1        0.0268
     14 H           5.2087   -0.6423    0.0000 H       1  UNL1        0.0268
     15 H           4.2690    1.0600    0.0000 H       1  UNL1        0.0422
     16 H           5.2087    0.1423    0.0000 H       1  UNL1        0.0275
     17 H           4.8101    0.8326    0.0000 H       1  UNL1        0.0275
     18 H           2.2554   -0.6423    0.0000 H       1  UNL1        0.0344
     19 H           2.6540   -1.3326    0.0000 H       1  UNL1        0.0344
     20 H           3.1120   -2.2500    0.0000 H       1  UNL1        0.0233
     21 H           3.7320   -2.8700    0.0000 H       1  UNL1        0.0233
     22 H           4.3520   -2.2500    0.0000 H       1  UNL1        0.0233
     23 H           4.9081    1.7131    0.0000 H       1  UNL1        0.0274
     24 H           5.1350    2.5600    0.0000 H       1  UNL1        0.0274
     25 H           4.2881    2.7869    0.0000 H       1  UNL1        0.0274
     26 H           2.8660    2.8700    0.0000 H       1  UNL1        0.0535
     27 H           2.3291    1.9400    0.0000 H       1  UNL1        0.0535
@<TRIPOS>BOND
     1     1     7    2
     2     2     3    1
     3     2     6    1
     4     2     8    1
     5     2    12    1
     6     3     5    1
     7     3    13    1
     8     3    14    1
     9     4     5    1
    10     4     7    1
    11     4     9    1
    12     4    15    1
    13     5    16    1
    14     5    17    1
    15     6     7    1
    16     6    18    1
    17     6    19    1
    18     8    20    1
    19     8    21    1
    20     8    22    1
    21     9    10    1
    22     9    11    2
    23    10    23    1
    24    10    24    1
    25    10    25    1
    26    11    26    1
    27    11    27    1
