@<TRIPOS>MOLECULE
IMPHY000446
 51 52 0 0 0
SMALL
GASTEIGER

@<TRIPOS>ATOM
      1 O           7.6962    0.4371    0.0000 O.3     1  UNL1       -0.3740
      2 O           6.3301   -0.1969    0.0000 O.3     1  UNL1       -0.4432
      3 O           8.9282    1.3031    0.0000 O.3     1  UNL1       -0.4785
      4 O           8.4042    2.7428    0.0000 O.2     1  UNL1       -0.2476
      5 O           5.4641    2.3031    0.0000 O.3     1  UNL1       -0.4780
      6 O           4.5981    0.8031    0.0000 O.2     1  UNL1       -0.2467
      7 O           7.3908    6.1084    0.0000 O.3     1  UNL1       -0.5068
      8 O           4.5981   -0.1969    0.0000 O.2     1  UNL1       -0.2456
      9 O           2.8660   -5.1969    0.0000 O.3     1  UNL1       -0.4914
     10 O           4.5981   -6.1969    0.0000 O.3     1  UNL1       -0.5033
     11 C           7.1962    1.3031    0.0000 C.3     1  UNL1        0.2137
     12 C           6.6962    2.1691    0.0000 C.3     1  UNL1        0.0160
     13 C           6.3301    0.8031    0.0000 C.3     1  UNL1        0.2379
     14 C           6.8698    3.1539    0.0000 C.ar    1  UNL1       -0.0437
     15 C           8.0622    1.8031    0.0000 C.2     1  UNL1        0.3415
     16 C           5.4641    1.3031    0.0000 C.2     1  UNL1        0.3495
     17 C           7.8095    3.4960    0.0000 C.ar    1  UNL1       -0.0550
     18 C           6.1038    3.7967    0.0000 C.ar    1  UNL1       -0.0550
     19 C           7.9831    4.4808    0.0000 C.ar    1  UNL1       -0.0199
     20 C           6.2774    4.7815    0.0000 C.ar    1  UNL1       -0.0199
     21 C           7.2171    5.1236    0.0000 C.ar    1  UNL1        0.1169
     22 C           5.4641   -0.6969    0.0000 C.2     1  UNL1        0.3328
     23 C           5.4641   -1.6969    0.0000 C.2     1  UNL1        0.0231
     24 C           4.5981   -2.1969    0.0000 C.2     1  UNL1       -0.0477
     25 C           4.5981   -3.1969    0.0000 C.ar    1  UNL1       -0.0211
     26 C           3.7320   -3.6969    0.0000 C.ar    1  UNL1       -0.0092
     27 C           5.4641   -3.6969    0.0000 C.ar    1  UNL1       -0.0509
     28 C           3.7320   -4.6969    0.0000 C.ar    1  UNL1        0.1618
     29 C           4.5981   -5.1969    0.0000 C.ar    1  UNL1        0.1585
     30 C           5.4641   -4.6969    0.0000 C.ar    1  UNL1       -0.0160
     31 C           2.0000   -4.6969    0.0000 C.3     1  UNL1        0.0790
     32 H           6.1421    2.4474    0.0000 H       1  UNL1        0.0348
     33 H           6.2707    1.7182    0.0000 H       1  UNL1        0.0348
     34 H           6.8671    0.4931    0.0000 H       1  UNL1        0.0889
     35 H           8.3162    0.4371    0.0000 H       1  UNL1        0.2110
     36 H           8.2844    3.0974    0.0000 H       1  UNL1        0.0621
     37 H           5.5211    3.5847    0.0000 H       1  UNL1        0.0621
     38 H           8.5658    4.6928    0.0000 H       1  UNL1        0.0654
     39 H           5.8025    5.1801    0.0000 H       1  UNL1        0.0654
     40 H           9.4651    1.6131    0.0000 H       1  UNL1        0.2951
     41 H           4.9272    2.6131    0.0000 H       1  UNL1        0.2952
     42 H           6.0010   -2.0069    0.0000 H       1  UNL1        0.0689
     43 H           4.0611   -1.8869    0.0000 H       1  UNL1        0.0626
     44 H           6.9158    6.5069    0.0000 H       1  UNL1        0.2921
     45 H           3.1951   -3.3869    0.0000 H       1  UNL1        0.0661
     46 H           6.0010   -3.3869    0.0000 H       1  UNL1        0.0625
     47 H           6.0010   -5.0069    0.0000 H       1  UNL1        0.0655
     48 H           5.1350   -6.5069    0.0000 H       1  UNL1        0.2923
     49 H           2.3100   -4.1600    0.0000 H       1  UNL1        0.0660
     50 H           1.4631   -4.3869    0.0000 H       1  UNL1        0.0660
     51 H           1.6900   -5.2338    0.0000 H       1  UNL1        0.0660
@<TRIPOS>BOND
     1    11     1    1
     2     1    35    1
     3    13     2    1
     4     2    22    1
     5     3    15    1
     6     3    40    1
     7     4    15    2
     8     5    16    1
     9     5    41    1
    10     6    16    2
    11     7    21    1
    12     7    44    1
    13     8    22    2
    14     9    28    1
    15     9    31    1
    16    10    29    1
    17    10    48    1
    18    11    12    1
    19    11    13    1
    20    11    15    1
    21    12    14    1
    22    12    32    1
    23    12    33    1
    24    13    16    1
    25    13    34    1
    26    14    17   ar
    27    14    18   ar
    28    17    19   ar
    29    17    36    1
    30    18    20   ar
    31    18    37    1
    32    19    21   ar
    33    19    38    1
    34    20    21   ar
    35    20    39    1
    36    22    23    1
    37    23    24    2
    38    23    42    1
    39    24    25    1
    40    24    43    1
    41    25    26   ar
    42    25    27   ar
    43    26    28   ar
    44    26    45    1
    45    27    30   ar
    46    27    46    1
    47    28    29   ar
    48    29    30   ar
    49    30    47    1
    50    31    49    1
    51    31    50    1
    52    31    51    1
