@<TRIPOS>MOLECULE
IMPHY001716
 39 38 0 0 0
SMALL
GASTEIGER

@<TRIPOS>ATOM
      1 O           0.5369    2.5369    0.0000 O.3     1  UNL1       -0.5046
      2 O           3.1350    4.0369    0.0000 O.3     1  UNL1       -0.3903
      3 O           4.8671    2.0369    0.0000 O.3     1  UNL1       -0.3904
      4 O           0.1039    7.9669    0.0000 O.co2   2  UNL2       -0.5498
      5 O           0.9699    9.4669    0.0000 O.co2   2  UNL2       -0.5498
      6 O           5.3001    7.9669    0.0000 O.co2   2  UNL2       -0.5450
      7 O           4.4340    9.4669    0.0000 O.co2   2  UNL2       -0.5450
      8 N           2.2690    0.5369    0.0000 N.ar    1  UNL1       -0.2562
      9 C           2.2690    2.5369    0.0000 C.ar    1  UNL1        0.0278
     10 C           3.1350    2.0369    0.0000 C.ar    1  UNL1        0.0047
     11 C           1.4030    2.0369    0.0000 C.ar    1  UNL1        0.1434
     12 C           1.4030    1.0369    0.0000 C.ar    1  UNL1        0.0798
     13 C           2.2690    3.5369    0.0000 C.3     1  UNL1        0.0731
     14 C           4.0010    2.5369    0.0000 C.3     1  UNL1        0.0711
     15 C           3.1350    1.0369    0.0000 C.ar    1  UNL1        0.0338
     16 C           0.5369    0.5369    0.0000 C.3     1  UNL1       -0.0188
     17 C           2.7020    8.4669    0.0000 C.3     2  UNL2       -0.0215
     18 C           1.8360    7.9669    0.0000 C.3     2  UNL2       -0.0092
     19 C           3.5680    7.9669    0.0000 C.2     2  UNL2       -0.0318
     20 C           0.9699    8.4669    0.0000 C.2     2  UNL2        0.0421
     21 C           4.4340    8.4669    0.0000 C.2     2  UNL2        0.0672
     22 C           3.5680    6.9669    0.0000 C.2     2  UNL2       -0.0938
     23 H           2.0569    4.1195    0.0000 H       1  UNL1        0.0608
     24 H           1.6584    3.4293    0.0000 H       1  UNL1        0.0608
     25 H           4.3996    3.0119    0.0000 H       1  UNL1        0.0608
     26 H           3.6025    3.0119    0.0000 H       1  UNL1        0.0608
     27 H           3.6720    0.7269    0.0000 H       1  UNL1        0.0833
     28 H           0.2269    1.0739    0.0000 H       1  UNL1        0.0294
     29 H           0.0000    0.2269    0.0000 H       1  UNL1        0.0294
     30 H           0.8469    0.0000    0.0000 H       1  UNL1        0.0294
     31 H           3.1005    8.9419    0.0000 H       2  UNL2        0.0317
     32 H           2.3035    8.9419    0.0000 H       2  UNL2        0.0317
     33 H           1.4374    7.4920    0.0000 H       2  UNL2        0.0328
     34 H           2.2345    7.4920    0.0000 H       2  UNL2        0.0328
     35 H           0.0000    2.2269    0.0000 H       1  UNL1        0.2922
     36 H           3.1350    4.6569    0.0000 H       1  UNL1        0.2098
     37 H           5.4040    2.3469    0.0000 H       1  UNL1        0.2098
     38 H           3.0311    6.6569    0.0000 H       2  UNL2        0.0538
     39 H           4.1050    6.6569    0.0000 H       2  UNL2        0.0538
@<TRIPOS>UNITY_ATOM_ATTR
4 1
charge -1
6 1
charge -1
@<TRIPOS>BOND
     1     1    11    1
     2     1    35    1
     3     2    13    1
     4     2    36    1
     5     3    14    1
     6     3    37    1
     7     4    20   ar
     8     5    20   ar
     9     6    21   ar
    10     7    21   ar
    11     8    12   ar
    12     8    15   ar
    13     9    10   ar
    14     9    11   ar
    15     9    13    1
    16    10    14    1
    17    10    15   ar
    18    11    12   ar
    19    12    16    1
    20    13    23    1
    21    13    24    1
    22    14    25    1
    23    14    26    1
    24    15    27    1
    25    16    28    1
    26    16    29    1
    27    16    30    1
    28    17    18    1
    29    17    19    1
    30    17    31    1
    31    17    32    1
    32    18    20    1
    33    18    33    1
    34    18    34    1
    35    19    21    1
    36    19    22    2
    37    22    38    1
    38    22    39    1
