@<TRIPOS>MOLECULE
IMPHY007945
 54 59 0 0 0
SMALL
GASTEIGER

@<TRIPOS>ATOM
      1 O           4.7457    1.2947    0.0000 O.3     1  UNL1       -0.3436
      2 O           3.8842   -0.2789    0.0000 O.3     1  UNL1       -0.3659
      3 O           6.5138   -1.6422    0.0000 O.3     1  UNL1       -0.4674
      4 O           4.7902   -1.8132    0.0000 O.2     1  UNL1       -0.2500
      5 N           4.7802    0.1863    0.0000 N.3     1  UNL1       -0.2750
      6 N           5.8919    1.7238    0.0000 N.pl3   1  UNL1       -0.3115
      7 C           6.3919    0.1850    0.0000 C.3     1  UNL1        0.0570
      8 C           5.5829    0.7727    0.0000 C.3     1  UNL1        0.1264
      9 C           5.5040   -0.2350    0.0000 C.3     1  UNL1        0.1374
     10 C           5.6176    1.7471    0.0000 C.3     1  UNL1        0.0979
     11 C           3.9205    2.2058    0.0000 C.3     1  UNL1        0.0052
     12 C           6.0823   -0.7597    0.0000 C.3     1  UNL1       -0.0258
     13 C           4.8791    2.3837    0.0000 C.3     1  UNL1       -0.0154
     14 C           7.2010    0.7727    0.0000 C.ar    1  UNL1       -0.0154
     15 C           4.6895    0.3141    0.0000 C.3     1  UNL1        0.1739
     16 C           5.0882   -0.7588    0.0000 C.3     1  UNL1        0.0022
     17 C           3.8414    0.4496    0.0000 C.3     1  UNL1        0.0223
     18 C           3.4596    1.3467    0.0000 C.2     1  UNL1       -0.0553
     19 C           6.8919    1.7238    0.0000 C.ar    1  UNL1        0.0348
     20 C           5.6028   -1.2301    0.0000 C.2     1  UNL1        0.3195
     21 C           6.2987    2.6373    0.0000 C.3     1  UNL1        0.0025
     22 C           8.2164    0.5405    0.0000 C.ar    1  UNL1       -0.0561
     23 C           7.5769    2.5085    0.0000 C.ar    1  UNL1       -0.0403
     24 C           2.4606    1.3916    0.0000 C.2     1  UNL1       -0.0864
     25 C           8.9193    1.3092    0.0000 C.ar    1  UNL1       -0.0614
     26 C           8.5974    2.2998    0.0000 C.ar    1  UNL1       -0.0600
     27 C           2.0000    2.2793    0.0000 C.3     1  UNL1       -0.0465
     28 C           6.6125   -2.6373    0.0000 C.3     1  UNL1        0.0817
     29 H           5.6478    2.5966    0.0000 H       1  UNL1        0.0633
     30 H           3.5548    2.7065    0.0000 H       1  UNL1        0.0359
     31 H           6.0166   -1.3762    0.0000 H       1  UNL1        0.0288
     32 H           6.6885   -0.8898    0.0000 H       1  UNL1        0.0288
     33 H           5.3786    2.7510    0.0000 H       1  UNL1        0.0297
     34 H           4.6327    2.9526    0.0000 H       1  UNL1        0.0297
     35 H           4.1444    0.6095    0.0000 H       1  UNL1        0.0919
     36 H           4.4818   -0.8879    0.0000 H       1  UNL1        0.0428
     37 H           5.1528   -1.3754    0.0000 H       1  UNL1        0.0428
     38 H           3.2312    0.3403    0.0000 H       1  UNL1        0.0473
     39 H           3.8116   -0.1697    0.0000 H       1  UNL1        0.0473
     40 H           6.8651    2.3852    0.0000 H       1  UNL1        0.0428
     41 H           6.5509    3.2037    0.0000 H       1  UNL1        0.0428
     42 H           5.7323    2.8895    0.0000 H       1  UNL1        0.0428
     43 H           8.4011   -0.0513    0.0000 H       1  UNL1        0.0621
     44 H           7.3785    3.0959    0.0000 H       1  UNL1        0.0636
     45 H           2.1267    0.8692    0.0000 H       1  UNL1        0.0569
     46 H           3.9530   -0.8951    0.0000 H       1  UNL1        0.2125
     47 H           9.5252    1.1779    0.0000 H       1  UNL1        0.0618
     48 H           9.0105    2.7622    0.0000 H       1  UNL1        0.0618
     49 H           2.5503    2.5648    0.0000 H       1  UNL1        0.0272
     50 H           1.7144    2.8296    0.0000 H       1  UNL1        0.0272
     51 H           1.4497    1.9937    0.0000 H       1  UNL1        0.0272
     52 H           5.9955   -2.6985    0.0000 H       1  UNL1        0.0661
     53 H           6.6737   -3.2543    0.0000 H       1  UNL1        0.0661
     54 H           7.2295   -2.5762    0.0000 H       1  UNL1        0.0661
@<TRIPOS>BOND
     1     1    10    1
     2     1    15    1
     3    15     2    1
     4     2    46    1
     5     3    20    1
     6     3    28    1
     7     4    20    2
     8     5     8    1
     9     5    16    1
    10     5    17    1
    11     8     6    1
    12     6    19    1
    13     6    21    1
    14     7     8    1
    15     7     9    1
    16     7    12    1
    17     7    14    1
    18     8    10    1
    19     9    11    1
    20     9    15    1
    21     9    20    1
    22    10    13    1
    23    10    29    1
    24    11    13    1
    25    11    18    1
    26    11    30    1
    27    12    16    1
    28    12    31    1
    29    12    32    1
    30    13    33    1
    31    13    34    1
    32    14    19   ar
    33    14    22   ar
    34    15    35    1
    35    16    36    1
    36    16    37    1
    37    17    18    1
    38    17    38    1
    39    17    39    1
    40    18    24    2
    41    19    23   ar
    42    21    40    1
    43    21    41    1
    44    21    42    1
    45    22    25   ar
    46    22    43    1
    47    23    26   ar
    48    23    44    1
    49    24    27    1
    50    24    45    1
    51    25    26   ar
    52    25    47    1
    53    26    48    1
    54    27    49    1
    55    27    50    1
    56    27    51    1
    57    28    52    1
    58    28    53    1
    59    28    54    1
