@<TRIPOS>MOLECULE
IMPHY014659
 42 41 0 0 0
SMALL
GASTEIGER

@<TRIPOS>ATOM
      1 S           8.0622   -0.7500    0.0000 S.3     1  UNL1       -0.0605
      2 S           7.1962   -1.2500    0.0000 S.3     1  UNL1       -0.0605
      3 C          10.6603    0.7500    0.0000 C.3     1  UNL1       -0.0496
      4 C           3.7320   -1.2500    0.0000 C.3     1  UNL1       -0.0496
      5 C           9.7942    0.2500    0.0000 C.3     1  UNL1       -0.0312
      6 C           4.5981   -0.7500    0.0000 C.3     1  UNL1       -0.0312
      7 C          10.6603    1.7500    0.0000 C.3     1  UNL1       -0.0556
      8 C           2.8660   -0.7500    0.0000 C.3     1  UNL1       -0.0556
      9 C           9.7942   -0.7500    0.0000 C.2     1  UNL1       -0.0656
     10 C           5.4641   -1.2500    0.0000 C.2     1  UNL1       -0.0656
     11 C          11.5263    2.2500    0.0000 C.3     1  UNL1       -0.0653
     12 C           2.0000   -1.2500    0.0000 C.3     1  UNL1       -0.0653
     13 C          10.6603   -1.2500    0.0000 C.3     1  UNL1       -0.0430
     14 C           5.4641   -2.2500    0.0000 C.3     1  UNL1       -0.0430
     15 C           8.9282   -1.2500    0.0000 C.2     1  UNL1       -0.0185
     16 C           6.3301   -0.7500    0.0000 C.2     1  UNL1       -0.0185
     17 H          10.8723    0.1674    0.0000 H       1  UNL1        0.0268
     18 H          11.2708    0.8577    0.0000 H       1  UNL1        0.0268
     19 H           3.3335   -1.7250    0.0000 H       1  UNL1        0.0268
     20 H           4.1306   -1.7250    0.0000 H       1  UNL1        0.0268
     21 H           9.5822    0.8326    0.0000 H       1  UNL1        0.0310
     22 H           9.1836    0.1423    0.0000 H       1  UNL1        0.0310
     23 H           4.9966   -0.2751    0.0000 H       1  UNL1        0.0310
     24 H           4.1996   -0.2751    0.0000 H       1  UNL1        0.0310
     25 H          10.4482    2.3326    0.0000 H       1  UNL1        0.0263
     26 H          10.0497    1.6423    0.0000 H       1  UNL1        0.0263
     27 H           3.2646   -0.2751    0.0000 H       1  UNL1        0.0263
     28 H           2.4675   -0.2751    0.0000 H       1  UNL1        0.0263
     29 H          11.8363    1.7131    0.0000 H       1  UNL1        0.0230
     30 H          12.0632    2.5600    0.0000 H       1  UNL1        0.0230
     31 H          11.2163    2.7869    0.0000 H       1  UNL1        0.0230
     32 H           1.6900   -0.7131    0.0000 H       1  UNL1        0.0230
     33 H           1.4631   -1.5600    0.0000 H       1  UNL1        0.0230
     34 H           2.3100   -1.7869    0.0000 H       1  UNL1        0.0230
     35 H          10.3503   -1.7869    0.0000 H       1  UNL1        0.0275
     36 H          11.1972   -1.5600    0.0000 H       1  UNL1        0.0275
     37 H          10.9703   -0.7131    0.0000 H       1  UNL1        0.0275
     38 H           4.8441   -2.2500    0.0000 H       1  UNL1        0.0275
     39 H           5.4641   -2.8700    0.0000 H       1  UNL1        0.0275
     40 H           6.0841   -2.2500    0.0000 H       1  UNL1        0.0275
     41 H           8.9282   -1.8700    0.0000 H       1  UNL1        0.0698
     42 H           6.3301   -0.1300    0.0000 H       1  UNL1        0.0698
@<TRIPOS>BOND
     1     1     2    1
     2     1    15    1
     3     2    16    1
     4     3     5    1
     5     3     7    1
     6     3    17    1
     7     3    18    1
     8     4     6    1
     9     4     8    1
    10     4    19    1
    11     4    20    1
    12     5     9    1
    13     5    21    1
    14     5    22    1
    15     6    10    1
    16     6    23    1
    17     6    24    1
    18     7    11    1
    19     7    25    1
    20     7    26    1
    21     8    12    1
    22     8    27    1
    23     8    28    1
    24     9    13    1
    25     9    15    2
    26    10    14    1
    27    10    16    2
    28    11    29    1
    29    11    30    1
    30    11    31    1
    31    12    32    1
    32    12    33    1
    33    12    34    1
    34    13    35    1
    35    13    36    1
    36    13    37    1
    37    14    38    1
    38    14    39    1
    39    14    40    1
    40    15    41    1
    41    16    42    1
