@<TRIPOS>MOLECULE
IMPHY013114
 82 85 0 0 0
SMALL
GASTEIGER

@<TRIPOS>ATOM
      1 O           3.7320   -3.6598    0.0000 O.3     1  UNL1       -0.4612
      2 O           2.8718   -2.1564    0.0000 O.2     1  UNL1       -0.2512
      3 C           9.1251   -0.6074    0.0000 C.3     1  UNL1       -0.0259
      4 C           9.1251   -1.6074    0.0000 C.3     1  UNL1       -0.0320
      5 C           8.2591   -2.1074    0.0000 C.3     1  UNL1       -0.0307
      6 C           7.3931   -1.6074    0.0000 C.3     1  UNL1       -0.0285
      7 C          10.0713   -0.3027    0.0000 C.3     1  UNL1       -0.0328
      8 C           8.2591   -0.1074    0.0000 C.3     1  UNL1       -0.0468
      9 C           6.4831   -2.1143    0.0000 C.3     1  UNL1       -0.0077
     10 C          10.0713   -1.9122    0.0000 C.3     1  UNL1       -0.0492
     11 C           7.3931   -0.6074    0.0000 C.3     1  UNL1       -0.0486
     12 C          10.6550   -1.1074    0.0000 C.3     1  UNL1       -0.0492
     13 C           8.2752   -3.1489    0.0000 C.3     1  UNL1       -0.0311
     14 C          10.3820    0.6478    0.0000 C.3     1  UNL1       -0.0405
     15 C           9.1251    0.3926    0.0000 C.3     1  UNL1       -0.0590
     16 C           6.4750   -3.1559    0.0000 C.2     1  UNL1       -0.0638
     17 C           5.5562   -1.5502    0.0000 C.3     1  UNL1       -0.0403
     18 C           7.3771   -3.6767    0.0000 C.2     1  UNL1       -0.0838
     19 C           6.4908   -1.1143    0.0000 C.3     1  UNL1       -0.0556
     20 C           5.5396   -3.7056    0.0000 C.3     1  UNL1        0.0061
     21 C           4.6084   -2.0781    0.0000 C.3     1  UNL1       -0.0146
     22 C          11.3605    0.8540    0.0000 C.3     1  UNL1       -0.0499
     23 C           4.6000   -3.1631    0.0000 C.3     1  UNL1        0.1068
     24 C           9.7142    1.3921    0.0000 C.3     1  UNL1       -0.0621
     25 C          11.6712    1.8046    0.0000 C.3     1  UNL1       -0.0500
     26 C          12.6497    2.0108    0.0000 C.3     1  UNL1       -0.0415
     27 C          12.9603    2.9613    0.0000 C.3     1  UNL1       -0.0441
     28 C          13.3175    1.2665    0.0000 C.3     1  UNL1       -0.0622
     29 C           2.8680   -3.1564    0.0000 C.2     1  UNL1        0.3042
     30 C          13.9388    3.1675    0.0000 C.3     1  UNL1       -0.0624
     31 C          12.2925    3.7056    0.0000 C.3     1  UNL1       -0.0624
     32 C           2.0000   -3.6531    0.0000 C.3     1  UNL1        0.0332
     33 H           9.2151   -2.4527    0.0000 H       1  UNL1        0.0309
     34 H           8.9985   -2.5267    0.0000 H       1  UNL1        0.0309
     35 H           8.1292   -1.1824    0.0000 H       1  UNL1        0.0312
     36 H          10.9110   -0.1708    0.0000 H       1  UNL1        0.0309
     37 H           8.6576    0.3675    0.0000 H       1  UNL1        0.0271
     38 H           7.8606    0.3675    0.0000 H       1  UNL1        0.0271
     39 H           9.8203   -2.4791    0.0000 H       1  UNL1        0.0268
     40 H          10.6087   -2.2214    0.0000 H       1  UNL1        0.0268
     41 H           7.1810   -0.0248    0.0000 H       1  UNL1        0.0268
     42 H           6.7825   -0.7151    0.0000 H       1  UNL1        0.0268
     43 H          11.1158   -1.5222    0.0000 H       1  UNL1        0.0268
     44 H          11.1158   -0.6927    0.0000 H       1  UNL1        0.0268
     45 H           8.4932   -3.7293    0.0000 H       1  UNL1        0.0310
     46 H           8.8843   -3.0334    0.0000 H       1  UNL1        0.0310
     47 H          10.5746    1.2371    0.0000 H       1  UNL1        0.0301
     48 H           9.7451    0.3926    0.0000 H       1  UNL1        0.0235
     49 H           9.1251    1.0126    0.0000 H       1  UNL1        0.0235
     50 H           8.5051    0.3926    0.0000 H       1  UNL1        0.0235
     51 H           5.9644   -1.0835    0.0000 H       1  UNL1        0.0275
     52 H           5.1663   -1.0682    0.0000 H       1  UNL1        0.0275
     53 H           7.3795   -4.2967    0.0000 H       1  UNL1        0.0572
     54 H           7.1108   -1.1191    0.0000 H       1  UNL1        0.0238
     55 H           6.4956   -0.4943    0.0000 H       1  UNL1        0.0238
     56 H           5.8708   -1.1095    0.0000 H       1  UNL1        0.0238
     57 H           5.1423   -4.1816    0.0000 H       1  UNL1        0.0346
     58 H           5.9406   -4.1785    0.0000 H       1  UNL1        0.0346
     59 H           4.4038   -1.4929    0.0000 H       1  UNL1        0.0301
     60 H           3.9967   -2.1795    0.0000 H       1  UNL1        0.0301
     61 H          11.3811    0.2344    0.0000 H       1  UNL1        0.0268
     62 H          11.9743    0.7667    0.0000 H       1  UNL1        0.0268
     63 H           4.0648   -2.8500    0.0000 H       1  UNL1        0.0737
     64 H          10.1756    1.8062    0.0000 H       1  UNL1        0.0233
     65 H           9.3001    1.8536    0.0000 H       1  UNL1        0.0233
     66 H           9.2527    0.9781    0.0000 H       1  UNL1        0.0233
     67 H          11.6506    2.4242    0.0000 H       1  UNL1        0.0268
     68 H          11.0574    1.8919    0.0000 H       1  UNL1        0.0268
     69 H          12.4571    1.4215    0.0000 H       1  UNL1        0.0301
     70 H          13.1530    3.5506    0.0000 H       1  UNL1        0.0298
     71 H          12.8561    0.8524    0.0000 H       1  UNL1        0.0232
     72 H          13.7316    0.8050    0.0000 H       1  UNL1        0.0232
     73 H          13.7790    1.6805    0.0000 H       1  UNL1        0.0232
     74 H          14.0667    2.5608    0.0000 H       1  UNL1        0.0232
     75 H          14.5455    3.2954    0.0000 H       1  UNL1        0.0232
     76 H          13.8110    3.7742    0.0000 H       1  UNL1        0.0232
     77 H          12.7540    4.1197    0.0000 H       1  UNL1        0.0232
     78 H          11.8784    4.1671    0.0000 H       1  UNL1        0.0232
     79 H          11.8310    3.2915    0.0000 H       1  UNL1        0.0232
     80 H           1.6921   -3.1150    0.0000 H       1  UNL1        0.0342
     81 H           1.4619   -3.9610    0.0000 H       1  UNL1        0.0342
     82 H           2.3079   -4.1912    0.0000 H       1  UNL1        0.0342
@<TRIPOS>BOND
     1    23     1    1
     2     1    29    1
     3     2    29    2
     4     3     4    1
     5     3     7    1
     6     3     8    1
     7     3    15    1
     8     4     5    1
     9     4    10    1
    10     4    33    1
    11     5     6    1
    12     5    13    1
    13     5    34    1
    14     6     9    1
    15     6    11    1
    16     6    35    1
    17     7    12    1
    18     7    14    1
    19     7    36    1
    20     8    11    1
    21     8    37    1
    22     8    38    1
    23     9    16    1
    24     9    17    1
    25     9    19    1
    26    10    12    1
    27    10    39    1
    28    10    40    1
    29    11    41    1
    30    11    42    1
    31    12    43    1
    32    12    44    1
    33    13    18    1
    34    13    45    1
    35    13    46    1
    36    14    22    1
    37    14    24    1
    38    14    47    1
    39    15    48    1
    40    15    49    1
    41    15    50    1
    42    16    18    2
    43    16    20    1
    44    17    21    1
    45    17    51    1
    46    17    52    1
    47    18    53    1
    48    19    54    1
    49    19    55    1
    50    19    56    1
    51    20    23    1
    52    20    57    1
    53    20    58    1
    54    21    23    1
    55    21    59    1
    56    21    60    1
    57    22    25    1
    58    22    61    1
    59    22    62    1
    60    23    63    1
    61    24    64    1
    62    24    65    1
    63    24    66    1
    64    25    26    1
    65    25    67    1
    66    25    68    1
    67    26    27    1
    68    26    28    1
    69    26    69    1
    70    27    30    1
    71    27    31    1
    72    27    70    1
    73    28    71    1
    74    28    72    1
    75    28    73    1
    76    29    32    1
    77    30    74    1
    78    30    75    1
    79    30    76    1
    80    31    77    1
    81    31    78    1
    82    31    79    1
    83    32    80    1
    84    32    81    1
    85    32    82    1
