@<TRIPOS>MOLECULE
IMPHY011710
 50 53 0 0 0
SMALL
GASTEIGER

@<TRIPOS>ATOM
      1 O           5.1350   -1.6796    0.0000 O.3     1  UNL1       -0.3221
      2 O           6.8671   -1.6796    0.0000 O.3     1  UNL1       -0.4606
      3 O           5.1350   -4.6796    0.0000 O.3     1  UNL1       -0.3863
      4 O           6.8671   -3.6796    0.0000 O.3     1  UNL1       -0.3829
      5 O           3.4030   -3.6796    0.0000 O.3     1  UNL1       -0.3860
      6 O           2.5369   -2.1796    0.0000 O.3     1  UNL1       -0.4788
      7 O           3.4030   -0.6796    0.0000 O.2     1  UNL1       -0.2480
      8 O           8.6230    1.3829    0.0000 O.2     1  UNL1       -0.4544
      9 O           5.1208    1.3996    0.0000 O.3     1  UNL1       -0.5058
     10 O           6.0308    2.8930    0.0000 O.2     1  UNL1       -0.2869
     11 O          12.0987    4.3696    0.0000 O.3     1  UNL1       -0.5068
     12 C           5.1350   -3.6796    0.0000 C.3     1  UNL1        0.1157
     13 C           6.0010   -3.1796    0.0000 C.3     1  UNL1        0.1455
     14 C           4.2690   -3.1796    0.0000 C.3     1  UNL1        0.1202
     15 C           4.2690   -2.1796    0.0000 C.3     1  UNL1        0.1869
     16 C           6.0010   -2.1796    0.0000 C.3     1  UNL1        0.2312
     17 C           3.4030   -1.6796    0.0000 C.2     1  UNL1        0.3367
     18 C           6.8671   -0.6796    0.0000 C.ar    1  UNL1        0.1310
     19 C           7.7671   -0.1553    0.0000 C.ar    1  UNL1        0.0235
     20 C           5.9670   -0.1553    0.0000 C.ar    1  UNL1        0.0226
     21 C           7.7551    0.8863    0.0000 C.ar    1  UNL1        0.1462
     22 C           6.8910    1.3896    0.0000 C.ar    1  UNL1        0.1055
     23 C           5.9790    0.8863    0.0000 C.ar    1  UNL1        0.1347
     24 C           6.8948    2.3896    0.0000 C.ar    1  UNL1        0.1966
     25 C           8.6269    2.3829    0.0000 C.ar    1  UNL1        0.1392
     26 C           7.7628    2.8863    0.0000 C.ar    1  UNL1        0.0288
     27 C           9.4948    2.8796    0.0000 C.ar    1  UNL1        0.0176
     28 C          10.3589    2.3763    0.0000 C.ar    1  UNL1       -0.0476
     29 C           9.4987    3.8796    0.0000 C.ar    1  UNL1       -0.0476
     30 C          11.2269    2.8729    0.0000 C.ar    1  UNL1       -0.0195
     31 C          10.3666    4.3762    0.0000 C.ar    1  UNL1       -0.0195
     32 C          11.2307    3.8729    0.0000 C.ar    1  UNL1        0.1169
     33 H           5.6720   -3.9896    0.0000 H       1  UNL1        0.0648
     34 H           6.5380   -2.8696    0.0000 H       1  UNL1        0.0683
     35 H           4.2690   -3.7996    0.0000 H       1  UNL1        0.0652
     36 H           6.0010   -1.5596    0.0000 H       1  UNL1        0.1084
     37 H           4.2690   -1.5596    0.0000 H       1  UNL1        0.0742
     38 H           5.6720   -4.9896    0.0000 H       1  UNL1        0.2100
     39 H           7.4040   -3.3696    0.0000 H       1  UNL1        0.2102
     40 H           3.4030   -4.2996    0.0000 H       1  UNL1        0.2100
     41 H           8.3064   -0.4611    0.0000 H       1  UNL1        0.0691
     42 H           5.4277   -0.4611    0.0000 H       1  UNL1        0.0691
     43 H           2.0000   -1.8696    0.0000 H       1  UNL1        0.2951
     44 H           7.7652    3.5063    0.0000 H       1  UNL1        0.0693
     45 H           4.5792    1.0979    0.0000 H       1  UNL1        0.2922
     46 H          10.3565    1.7563    0.0000 H       1  UNL1        0.0626
     47 H           8.9630    4.1916    0.0000 H       1  UNL1        0.0626
     48 H          11.7626    2.5608    0.0000 H       1  UNL1        0.0654
     49 H          10.3690    4.9962    0.0000 H       1  UNL1        0.0654
     50 H          12.1011    4.9896    0.0000 H       1  UNL1        0.2921
@<TRIPOS>BOND
     1     1    15    1
     2     1    16    1
     3    16     2    1
     4     2    18    1
     5    12     3    1
     6     3    38    1
     7    13     4    1
     8     4    39    1
     9    14     5    1
    10     5    40    1
    11     6    17    1
    12     6    43    1
    13     7    17    2
    14     8    21   ar
    15     8    25   ar
    16     9    23    1
    17     9    45    1
    18    10    24    2
    19    11    32    1
    20    11    50    1
    21    12    13    1
    22    12    14    1
    23    12    33    1
    24    13    16    1
    25    13    34    1
    26    14    15    1
    27    14    35    1
    28    15    17    1
    29    15    37    1
    30    16    36    1
    31    18    19   ar
    32    18    20   ar
    33    19    21   ar
    34    19    41    1
    35    20    23   ar
    36    20    42    1
    37    21    22   ar
    38    22    23   ar
    39    22    24   ar
    40    24    26   ar
    41    25    26   ar
    42    25    27    1
    43    26    44    1
    44    27    28   ar
    45    27    29   ar
    46    28    30   ar
    47    28    46    1
    48    29    31   ar
    49    29    47    1
    50    30    32   ar
    51    30    48    1
    52    31    32   ar
    53    31    49    1
