@<TRIPOS>MOLECULE
IMPHY008264
 160 168 0 0 0
SMALL
GASTEIGER

@<TRIPOS>ATOM
      1 O          11.1972   -1.6941    0.0000 O.3     1  UNL1       -0.3449
      2 O          13.9913    5.3844    0.0000 O.3     1  UNL1       -0.3906
      3 O          12.9510    7.5853    0.0000 O.3     1  UNL1       -0.4802
      4 O          13.9453    6.7704    0.0000 O.2     1  UNL1       -0.2503
      5 O           9.4651   -1.6941    0.0000 O.3     1  UNL1       -0.3405
      6 O          11.1972   -3.6941    0.0000 O.3     1  UNL1       -0.3841
      7 O           9.4651   -4.6941    0.0000 O.3     1  UNL1       -0.3864
      8 O           7.7331   -3.6941    0.0000 O.3     1  UNL1       -0.3401
      9 O           7.7331   -0.6941    0.0000 O.3     1  UNL1       -0.3461
     10 O           8.5991   -5.1941    0.0000 O.3     1  UNL1       -0.3431
     11 O           6.0010   -0.6941    0.0000 O.3     1  UNL1       -0.3461
     12 O           6.0010   -4.6941    0.0000 O.3     1  UNL1       -0.3841
     13 O           6.0010   -6.6941    0.0000 O.3     1  UNL1       -0.3401
     14 O           7.7331   -7.6941    0.0000 O.3     1  UNL1       -0.3866
     15 O           7.7331    1.3059    0.0000 O.3     1  UNL1       -0.3841
     16 O           6.0010    2.3059    0.0000 O.3     1  UNL1       -0.3864
     17 O           4.2690    1.3059    0.0000 O.3     1  UNL1       -0.3869
     18 O           5.1350   -5.1941    0.0000 O.3     1  UNL1       -0.3431
     19 O           4.2690   -7.6941    0.0000 O.3     1  UNL1       -0.3841
     20 O           2.5369   -6.6941    0.0000 O.3     1  UNL1       -0.3864
     21 O           2.5369   -4.6941    0.0000 O.3     1  UNL1       -0.3866
     22 C          12.0983    3.0061    0.0000 C.3     1  UNL1       -0.0193
     23 C          11.2342    2.5027    0.0000 C.3     1  UNL1       -0.0257
     24 C          11.2221    1.4612    0.0000 C.3     1  UNL1       -0.0250
     25 C          12.0944    4.0061    0.0000 C.3     1  UNL1       -0.0028
     26 C          12.1222    0.9369    0.0000 C.3     1  UNL1       -0.0278
     27 C          13.0102    2.5027    0.0000 C.3     1  UNL1       -0.0463
     28 C          13.0222    1.4612    0.0000 C.3     1  UNL1       -0.0486
     29 C          12.1347   -0.1480    0.0000 C.3     1  UNL1       -0.0052
     30 C          11.2264    4.5027    0.0000 C.2     1  UNL1       -0.0627
     31 C          11.2064    5.5442    0.0000 C.3     1  UNL1       -0.0007
     32 C          10.3662    2.9994    0.0000 C.3     1  UNL1       -0.0306
     33 C          10.2722    0.9369    0.0000 C.3     1  UNL1       -0.0447
     34 C          13.0024    4.5164    0.0000 C.3     1  UNL1       -0.0162
     35 C          12.1024    6.0754    0.0000 C.3     1  UNL1        0.0998
     36 C          13.0065    5.5580    0.0000 C.3     1  UNL1        0.0723
     37 C          13.0824    3.1835    0.0000 C.3     1  UNL1       -0.0585
     38 C          11.1972   -0.6941    0.0000 C.3     1  UNL1        0.0672
     39 C          10.3580    1.9645    0.0000 C.3     1  UNL1       -0.0590
     40 C          10.3624    3.9994    0.0000 C.2     1  UNL1       -0.0836
     41 C          10.2597   -0.1480    0.0000 C.3     1  UNL1       -0.0255
     42 C          13.0799    3.8362    0.0000 C.3     1  UNL1       -0.0552
     43 C          10.2524    6.0611    0.0000 C.3     1  UNL1       -0.0402
     44 C          12.1066    7.1604    0.0000 C.3     1  UNL1       -0.0338
     45 C          10.2315    7.1459    0.0000 C.3     1  UNL1       -0.0343
     46 C          13.1347   -0.1403    0.0000 C.3     1  UNL1       -0.0572
     47 C          12.6414   -1.0102    0.0000 C.3     1  UNL1       -0.0572
     48 C          11.1648    7.6992    0.0000 C.3     1  UNL1       -0.0467
     49 C          12.9626    6.5854    0.0000 C.2     1  UNL1        0.3140
     50 C           9.7182    8.0041    0.0000 C.3     1  UNL1       -0.0598
     51 C           9.2317    7.1305    0.0000 C.3     1  UNL1       -0.0598
     52 C          10.3312   -2.1941    0.0000 C.3     1  UNL1        0.1882
     53 C          10.3312   -3.1941    0.0000 C.3     1  UNL1        0.1341
     54 C           9.4651   -3.6941    0.0000 C.3     1  UNL1        0.1144
     55 C           8.5991   -2.1941    0.0000 C.3     1  UNL1        0.1137
     56 C           8.5991   -3.1941    0.0000 C.3     1  UNL1        0.1184
     57 C           7.7331   -1.6941    0.0000 C.3     1  UNL1        0.0796
     58 C           7.7331   -4.6941    0.0000 C.3     1  UNL1        0.1883
     59 C           6.8671   -5.1941    0.0000 C.3     1  UNL1        0.1345
     60 C           6.8671   -0.1941    0.0000 C.3     1  UNL1        0.1876
     61 C           6.8671   -6.1941    0.0000 C.3     1  UNL1        0.1205
     62 C           8.5991   -6.1941    0.0000 C.3     1  UNL1        0.0873
     63 C           7.7331   -6.6941    0.0000 C.3     1  UNL1        0.1098
     64 C           6.8671    0.8059    0.0000 C.3     1  UNL1        0.1341
     65 C           6.0010    1.3059    0.0000 C.3     1  UNL1        0.1137
     66 C           9.4651   -6.6941    0.0000 C.3     1  UNL1       -0.0361
     67 C           5.1350   -0.1941    0.0000 C.3     1  UNL1        0.0792
     68 C           5.1350    0.8059    0.0000 C.3     1  UNL1        0.1069
     69 C           5.1350   -6.1941    0.0000 C.3     1  UNL1        0.1883
     70 C           4.2690   -6.6941    0.0000 C.3     1  UNL1        0.1341
     71 C           3.4030   -6.1941    0.0000 C.3     1  UNL1        0.1140
     72 C           4.2690   -4.6941    0.0000 C.3     1  UNL1        0.0873
     73 C           3.4030   -5.1941    0.0000 C.3     1  UNL1        0.1095
     74 C           4.2690   -3.6941    0.0000 C.3     1  UNL1       -0.0361
     75 H          11.9686    2.0749    0.0000 H       1  UNL1        0.0315
     76 H          12.8616    0.5176    0.0000 H       1  UNL1        0.0312
     77 H          13.6222    2.4037    0.0000 H       1  UNL1        0.0271
     78 H          13.2125    3.0888    0.0000 H       1  UNL1        0.0271
     79 H          13.2380    0.8800    0.0000 H       1  UNL1        0.0268
     80 H          13.6318    1.5743    0.0000 H       1  UNL1        0.0268
     81 H          10.4803    5.1023    0.0000 H       1  UNL1        0.0357
     82 H           9.7552    3.1047    0.0000 H       1  UNL1        0.0310
     83 H          10.1564    2.4160    0.0000 H       1  UNL1        0.0310
     84 H          10.0699    1.5230    0.0000 H       1  UNL1        0.0271
     85 H           9.6602    0.8379    0.0000 H       1  UNL1        0.0271
     86 H          13.2092    3.9319    0.0000 H       1  UNL1        0.0299
     87 H          13.6137    4.6202    0.0000 H       1  UNL1        0.0299
     88 H          13.2174    6.1411    0.0000 H       1  UNL1        0.0605
     89 H          13.1924    2.5734    0.0000 H       1  UNL1        0.0235
     90 H          13.6925    3.2936    0.0000 H       1  UNL1        0.0235
     91 H          12.9724    3.7937    0.0000 H       1  UNL1        0.0235
     92 H          11.7347   -1.0031    0.0000 H       1  UNL1        0.0602
     93 H          10.6701    2.5003    0.0000 H       1  UNL1        0.0235
     94 H           9.8223    2.2766    0.0000 H       1  UNL1        0.0235
     95 H          10.0460    1.4288    0.0000 H       1  UNL1        0.0235
     96 H           9.8242    4.3073    0.0000 H       1  UNL1        0.0572
     97 H           9.6501   -0.0349    0.0000 H       1  UNL1        0.0290
     98 H          10.0439   -0.7293    0.0000 H       1  UNL1        0.0290
     99 H          12.9746    3.2252    0.0000 H       1  UNL1        0.0238
    100 H          13.6909    3.7309    0.0000 H       1  UNL1        0.0238
    101 H          13.1852    4.4472    0.0000 H       1  UNL1        0.0238
    102 H           9.6397    6.1554    0.0000 H       1  UNL1        0.0276
    103 H          10.0547    5.4735    0.0000 H       1  UNL1        0.0276
    104 H          12.7170    7.0519    0.0000 H       1  UNL1        0.0277
    105 H          12.3179    7.7433    0.0000 H       1  UNL1        0.0277
    106 H          13.1395   -0.7603    0.0000 H       1  UNL1        0.0236
    107 H          13.7547   -0.1355    0.0000 H       1  UNL1        0.0236
    108 H          13.1299    0.4797    0.0000 H       1  UNL1        0.0236
    109 H          12.1069   -1.3243    0.0000 H       1  UNL1        0.0236
    110 H          12.9555   -1.5447    0.0000 H       1  UNL1        0.0236
    111 H          13.1759   -0.6960    0.0000 H       1  UNL1        0.0236
    112 H          11.5603    8.1767    0.0000 H       1  UNL1        0.0271
    113 H          10.7621    8.1706    0.0000 H       1  UNL1        0.0271
    114 H          14.2033    4.8018    0.0000 H       1  UNL1        0.2098
    115 H           9.2221    7.7504    0.0000 H       1  UNL1        0.0235
    116 H           8.6117    7.1209    0.0000 H       1  UNL1        0.0235
    117 H          10.2503    8.3224    0.0000 H       1  UNL1        0.0235
    118 H           9.4000    8.5362    0.0000 H       1  UNL1        0.0235
    119 H           9.1862    7.6859    0.0000 H       1  UNL1        0.0235
    120 H           9.2412    6.5106    0.0000 H       1  UNL1        0.0235
    121 H          10.3312   -1.5741    0.0000 H       1  UNL1        0.0937
    122 H          13.4843    7.9015    0.0000 H       1  UNL1        0.2951
    123 H          10.3312   -3.8141    0.0000 H       1  UNL1        0.0671
    124 H           8.9282   -4.0041    0.0000 H       1  UNL1        0.0648
    125 H           8.5991   -1.5741    0.0000 H       1  UNL1        0.0647
    126 H           8.0622   -2.8841    0.0000 H       1  UNL1        0.0651
    127 H          11.7341   -3.3841    0.0000 H       1  UNL1        0.2101
    128 H           7.1225   -1.5865    0.0000 H       1  UNL1        0.0587
    129 H           7.5210   -2.2767    0.0000 H       1  UNL1        0.0587
    130 H          10.0021   -5.0041    0.0000 H       1  UNL1        0.2100
    131 H           7.1962   -4.3841    0.0000 H       1  UNL1        0.0938
    132 H           7.4292   -4.5741    0.0000 H       1  UNL1        0.0671
    133 H           6.8671   -0.8141    0.0000 H       1  UNL1        0.0937
    134 H           6.3301   -5.8841    0.0000 H       1  UNL1        0.0651
    135 H           9.1360   -5.8841    0.0000 H       1  UNL1        0.0621
    136 H           8.2700   -7.0041    0.0000 H       1  UNL1        0.0646
    137 H           7.4040    0.4959    0.0000 H       1  UNL1        0.0671
    138 H           6.0010   -4.0741    0.0000 H       1  UNL1        0.2101
    139 H           6.5380    1.6159    0.0000 H       1  UNL1        0.0647
    140 H           9.1551   -7.2311    0.0000 H       1  UNL1        0.0255
    141 H          10.0021   -7.0041    0.0000 H       1  UNL1        0.0255
    142 H           9.7751   -6.1572    0.0000 H       1  UNL1        0.0255
    143 H           4.5244   -0.0865    0.0000 H       1  UNL1        0.0587
    144 H           4.9230   -0.7767    0.0000 H       1  UNL1        0.0587
    145 H           5.1350    1.4259    0.0000 H       1  UNL1        0.0643
    146 H           7.1962   -8.0041    0.0000 H       1  UNL1        0.2100
    147 H           7.7331    1.9259    0.0000 H       1  UNL1        0.2101
    148 H           5.1350   -6.8141    0.0000 H       1  UNL1        0.0938
    149 H           5.4641    2.6159    0.0000 H       1  UNL1        0.2100
    150 H           3.7320   -7.0041    0.0000 H       1  UNL1        0.0671
    151 H           3.7320    0.9959    0.0000 H       1  UNL1        0.2100
    152 H           2.8660   -5.8841    0.0000 H       1  UNL1        0.0648
    153 H           4.8059   -4.3841    0.0000 H       1  UNL1        0.0621
    154 H           3.4030   -4.5741    0.0000 H       1  UNL1        0.0646
    155 H           3.7320   -8.0041    0.0000 H       1  UNL1        0.2101
    156 H           4.8890   -3.6941    0.0000 H       1  UNL1        0.0255
    157 H           4.2690   -3.0741    0.0000 H       1  UNL1        0.0255
    158 H           3.6490   -3.6941    0.0000 H       1  UNL1        0.0255
    159 H           2.0000   -6.3841    0.0000 H       1  UNL1        0.2100
    160 H           2.5369   -4.0741    0.0000 H       1  UNL1        0.2100
@<TRIPOS>BOND
     1    38     1    1
     2    52     1    1
     3    36     2    1
     4     2   114    1
     5     3    49    1
     6     3   122    1
     7     4    49    2
     8     5    52    1
     9     5    55    1
    10    53     6    1
    11     6   127    1
    12    54     7    1
    13     7   130    1
    14    56     8    1
    15    58     8    1
    16     9    57    1
    17    60     9    1
    18    10    58    1
    19    10    62    1
    20    11    60    1
    21    11    67    1
    22    59    12    1
    23    12   138    1
    24    61    13    1
    25    69    13    1
    26    63    14    1
    27    14   146    1
    28    64    15    1
    29    15   147    1
    30    65    16    1
    31    16   149    1
    32    68    17    1
    33    17   151    1
    34    18    69    1
    35    18    72    1
    36    70    19    1
    37    19   155    1
    38    71    20    1
    39    20   159    1
    40    73    21    1
    41    21   160    1
    42    22    23    1
    43    22    25    1
    44    22    27    1
    45    22    37    1
    46    23    24    1
    47    23    32    1
    48    23    75    1
    49    24    26    1
    50    24    33    1
    51    24    39    1
    52    25    30    1
    53    25    34    1
    54    25    42    1
    55    26    28    1
    56    26    29    1
    57    26    76    1
    58    27    28    1
    59    27    77    1
    60    27    78    1
    61    28    79    1
    62    28    80    1
    63    29    38    1
    64    29    46    1
    65    29    47    1
    66    30    31    1
    67    30    40    2
    68    31    35    1
    69    31    43    1
    70    31    81    1
    71    32    40    1
    72    32    82    1
    73    32    83    1
    74    33    41    1
    75    33    84    1
    76    33    85    1
    77    34    36    1
    78    34    86    1
    79    34    87    1
    80    35    36    1
    81    35    44    1
    82    35    49    1
    83    36    88    1
    84    37    89    1
    85    37    90    1
    86    37    91    1
    87    38    41    1
    88    38    92    1
    89    39    93    1
    90    39    94    1
    91    39    95    1
    92    40    96    1
    93    41    97    1
    94    41    98    1
    95    42    99    1
    96    42   100    1
    97    42   101    1
    98    43    45    1
    99    43   102    1
   100    43   103    1
   101    44    48    1
   102    44   104    1
   103    44   105    1
   104    45    48    1
   105    45    50    1
   106    45    51    1
   107    46   106    1
   108    46   107    1
   109    46   108    1
   110    47   109    1
   111    47   110    1
   112    47   111    1
   113    48   112    1
   114    48   113    1
   115    50   117    1
   116    50   118    1
   117    50   119    1
   118    51   115    1
   119    51   116    1
   120    51   120    1
   121    52    53    1
   122    52   121    1
   123    53    54    1
   124    53   123    1
   125    54    56    1
   126    54   124    1
   127    55    56    1
   128    55    57    1
   129    55   125    1
   130    56   126    1
   131    57   128    1
   132    57   129    1
   133    58    59    1
   134    58   131    1
   135    59    61    1
   136    59   132    1
   137    60    64    1
   138    60   133    1
   139    61    63    1
   140    61   134    1
   141    62    63    1
   142    62    66    1
   143    62   135    1
   144    63   136    1
   145    64    65    1
   146    64   137    1
   147    65    68    1
   148    65   139    1
   149    66   140    1
   150    66   141    1
   151    66   142    1
   152    67    68    1
   153    67   143    1
   154    67   144    1
   155    68   145    1
   156    69    70    1
   157    69   148    1
   158    70    71    1
   159    70   150    1
   160    71    73    1
   161    71   152    1
   162    72    73    1
   163    72    74    1
   164    72   153    1
   165    73   154    1
   166    74   156    1
   167    74   157    1
   168    74   158    1
