@<TRIPOS>MOLECULE
IMPHY015427
 30 30 0 0 0
SMALL
GASTEIGER

@<TRIPOS>ATOM
      1 O           3.3660   -1.1830    0.0000 O.3     1  UNL1       -0.3653
      2 O           9.0622   -0.3170    0.0000 O.3     1  UNL1       -0.3910
      3 C           2.8660   -0.3170    0.0000 C.3     1  UNL1        0.0904
      4 C           3.8660   -0.3170    0.0000 C.3     1  UNL1        0.0881
      5 C           4.7320    0.1830    0.0000 C.3     1  UNL1       -0.0202
      6 C           2.8660    0.6830    0.0000 C.3     1  UNL1       -0.0336
      7 C           2.0000   -0.8170    0.0000 C.3     1  UNL1       -0.0336
      8 C           5.5981   -0.3170    0.0000 C.3     1  UNL1       -0.0295
      9 C           6.4641    0.1830    0.0000 C.2     1  UNL1       -0.0743
     10 C           6.4641    1.1830    0.0000 C.3     1  UNL1       -0.0437
     11 C           7.3301   -0.3170    0.0000 C.2     1  UNL1       -0.0600
     12 C           8.1962    0.1830    0.0000 C.3     1  UNL1        0.0626
     13 H           4.3044   -0.7554    0.0000 H       1  UNL1        0.0625
     14 H           5.1306    0.6580    0.0000 H       1  UNL1        0.0294
     15 H           4.3335    0.6580    0.0000 H       1  UNL1        0.0294
     16 H           3.4860    0.6830    0.0000 H       1  UNL1        0.0258
     17 H           2.8660    1.3030    0.0000 H       1  UNL1        0.0258
     18 H           2.2460    0.6830    0.0000 H       1  UNL1        0.0258
     19 H           1.6900   -0.2801    0.0000 H       1  UNL1        0.0258
     20 H           1.4631   -1.1270    0.0000 H       1  UNL1        0.0258
     21 H           2.3100   -1.3539    0.0000 H       1  UNL1        0.0258
     22 H           5.1996   -0.7919    0.0000 H       1  UNL1        0.0311
     23 H           5.9966   -0.7919    0.0000 H       1  UNL1        0.0311
     24 H           7.0841    1.1830    0.0000 H       1  UNL1        0.0274
     25 H           6.4641    1.8030    0.0000 H       1  UNL1        0.0274
     26 H           5.8441    1.1830    0.0000 H       1  UNL1        0.0274
     27 H           7.3301   -0.9370    0.0000 H       1  UNL1        0.0594
     28 H           8.5947    0.6580    0.0000 H       1  UNL1        0.0601
     29 H           7.7976    0.6580    0.0000 H       1  UNL1        0.0601
     30 H           9.5991   -0.0070    0.0000 H       1  UNL1        0.2098
@<TRIPOS>BOND
     1     1     3    1
     2     1     4    1
     3     2    12    1
     4     2    30    1
     5     3     4    1
     6     3     6    1
     7     3     7    1
     8     4     5    1
     9     4    13    1
    10     5     8    1
    11     5    14    1
    12     5    15    1
    13     6    16    1
    14     6    17    1
    15     6    18    1
    16     7    19    1
    17     7    20    1
    18     7    21    1
    19     8     9    1
    20     8    22    1
    21     8    23    1
    22     9    10    1
    23     9    11    2
    24    10    24    1
    25    10    25    1
    26    10    26    1
    27    11    12    1
    28    11    27    1
    29    12    28    1
    30    12    29    1
