@<TRIPOS>MOLECULE
IMPHY008812
 116 116 0 0 0
SMALL
GASTEIGER

@<TRIPOS>ATOM
      1 O           4.5981   -8.8450    0.0000 O.3     1  UNL1       -0.4616
      2 O           2.8660   -8.8450    0.0000 O.2     1  UNL1       -0.2456
      3 O           2.8660  -14.8450    0.0000 O.3     1  UNL1       -0.5068
      4 C          11.5263    3.1550    0.0000 C.3     1  UNL1       -0.0531
      5 C          11.5263    4.1550    0.0000 C.3     1  UNL1       -0.0531
      6 C          10.6603    2.6550    0.0000 C.3     1  UNL1       -0.0531
      7 C          12.3923    4.6550    0.0000 C.3     1  UNL1       -0.0531
      8 C          10.6603    1.6550    0.0000 C.3     1  UNL1       -0.0531
      9 C          12.3923    5.6550    0.0000 C.3     1  UNL1       -0.0531
     10 C           9.7942    1.1550    0.0000 C.3     1  UNL1       -0.0531
     11 C          13.2583    6.1550    0.0000 C.3     1  UNL1       -0.0531
     12 C           9.7942    0.1550    0.0000 C.3     1  UNL1       -0.0531
     13 C          13.2583    7.1550    0.0000 C.3     1  UNL1       -0.0531
     14 C           8.9282   -0.3450    0.0000 C.3     1  UNL1       -0.0531
     15 C          14.1244    7.6550    0.0000 C.3     1  UNL1       -0.0531
     16 C           8.9282   -1.3450    0.0000 C.3     1  UNL1       -0.0531
     17 C          14.1244    8.6550    0.0000 C.3     1  UNL1       -0.0531
     18 C           8.0622   -1.8450    0.0000 C.3     1  UNL1       -0.0531
     19 C          14.9904    9.1550    0.0000 C.3     1  UNL1       -0.0531
     20 C           8.0622   -2.8450    0.0000 C.3     1  UNL1       -0.0531
     21 C          14.9904   10.1550    0.0000 C.3     1  UNL1       -0.0531
     22 C           7.1962   -3.3450    0.0000 C.3     1  UNL1       -0.0531
     23 C          15.8564   10.6550    0.0000 C.3     1  UNL1       -0.0531
     24 C           7.1962   -4.3450    0.0000 C.3     1  UNL1       -0.0531
     25 C          15.8564   11.6550    0.0000 C.3     1  UNL1       -0.0531
     26 C           6.3301   -4.8450    0.0000 C.3     1  UNL1       -0.0531
     27 C          16.7224   12.1550    0.0000 C.3     1  UNL1       -0.0531
     28 C           6.3301   -5.8450    0.0000 C.3     1  UNL1       -0.0530
     29 C          16.7224   13.1550    0.0000 C.3     1  UNL1       -0.0531
     30 C           5.4641   -6.3450    0.0000 C.3     1  UNL1       -0.0500
     31 C          17.5885   13.6550    0.0000 C.3     1  UNL1       -0.0533
     32 C           5.4641   -7.3450    0.0000 C.3     1  UNL1       -0.0185
     33 C          17.5885   14.6550    0.0000 C.3     1  UNL1       -0.0559
     34 C           4.5981   -7.8450    0.0000 C.3     1  UNL1        0.0928
     35 C          18.4545   15.1550    0.0000 C.3     1  UNL1       -0.0653
     36 C           3.7320   -9.3450    0.0000 C.2     1  UNL1        0.3319
     37 C           3.7320  -10.3450    0.0000 C.2     1  UNL1        0.0231
     38 C           2.8660  -10.8450    0.0000 C.2     1  UNL1       -0.0478
     39 C           2.8660  -11.8450    0.0000 C.ar    1  UNL1       -0.0246
     40 C           2.0000  -12.3450    0.0000 C.ar    1  UNL1       -0.0511
     41 C           3.7320  -12.3450    0.0000 C.ar    1  UNL1       -0.0511
     42 C           2.0000  -13.3450    0.0000 C.ar    1  UNL1       -0.0196
     43 C           3.7320  -13.3450    0.0000 C.ar    1  UNL1       -0.0196
     44 C           2.8660  -13.8450    0.0000 C.ar    1  UNL1        0.1169
     45 H          11.7383    2.5724    0.0000 H       1  UNL1        0.0265
     46 H          12.1369    3.2627    0.0000 H       1  UNL1        0.0265
     47 H          11.3142    4.7376    0.0000 H       1  UNL1        0.0265
     48 H          10.9157    4.0473    0.0000 H       1  UNL1        0.0265
     49 H          10.4482    3.2376    0.0000 H       1  UNL1        0.0265
     50 H          10.0497    2.5473    0.0000 H       1  UNL1        0.0265
     51 H          12.6044    4.0724    0.0000 H       1  UNL1        0.0265
     52 H          13.0029    4.7627    0.0000 H       1  UNL1        0.0265
     53 H          10.8723    1.0724    0.0000 H       1  UNL1        0.0265
     54 H          11.2708    1.7627    0.0000 H       1  UNL1        0.0265
     55 H          12.1803    6.2376    0.0000 H       1  UNL1        0.0265
     56 H          11.7817    5.5473    0.0000 H       1  UNL1        0.0265
     57 H           9.5822    1.7376    0.0000 H       1  UNL1        0.0265
     58 H           9.1836    1.0473    0.0000 H       1  UNL1        0.0265
     59 H          13.4704    5.5724    0.0000 H       1  UNL1        0.0265
     60 H          13.8689    6.2627    0.0000 H       1  UNL1        0.0265
     61 H          10.0063   -0.4276    0.0000 H       1  UNL1        0.0265
     62 H          10.4048    0.2627    0.0000 H       1  UNL1        0.0265
     63 H          13.0463    7.7376    0.0000 H       1  UNL1        0.0265
     64 H          12.6477    7.0473    0.0000 H       1  UNL1        0.0265
     65 H           8.7162    0.2376    0.0000 H       1  UNL1        0.0265
     66 H           8.3176   -0.4527    0.0000 H       1  UNL1        0.0265
     67 H          14.3364    7.0724    0.0000 H       1  UNL1        0.0265
     68 H          14.7349    7.7627    0.0000 H       1  UNL1        0.0265
     69 H           9.1403   -1.9276    0.0000 H       1  UNL1        0.0265
     70 H           9.5388   -1.2373    0.0000 H       1  UNL1        0.0265
     71 H          13.9123    9.2376    0.0000 H       1  UNL1        0.0265
     72 H          13.5138    8.5473    0.0000 H       1  UNL1        0.0265
     73 H           7.8501   -1.2624    0.0000 H       1  UNL1        0.0265
     74 H           7.4516   -1.9527    0.0000 H       1  UNL1        0.0265
     75 H          15.2024    8.5724    0.0000 H       1  UNL1        0.0265
     76 H          15.6010    9.2627    0.0000 H       1  UNL1        0.0265
     77 H           8.2742   -3.4276    0.0000 H       1  UNL1        0.0265
     78 H           8.6728   -2.7373    0.0000 H       1  UNL1        0.0265
     79 H          14.7783   10.7376    0.0000 H       1  UNL1        0.0265
     80 H          14.3798   10.0473    0.0000 H       1  UNL1        0.0265
     81 H           6.9841   -2.7624    0.0000 H       1  UNL1        0.0265
     82 H           6.5856   -3.4527    0.0000 H       1  UNL1        0.0265
     83 H          16.0685   10.0724    0.0000 H       1  UNL1        0.0265
     84 H          16.4670   10.7627    0.0000 H       1  UNL1        0.0265
     85 H           7.4082   -4.9276    0.0000 H       1  UNL1        0.0265
     86 H           7.8067   -4.2373    0.0000 H       1  UNL1        0.0265
     87 H          15.6444   12.2376    0.0000 H       1  UNL1        0.0265
     88 H          15.2458   11.5473    0.0000 H       1  UNL1        0.0265
     89 H           6.1181   -4.2624    0.0000 H       1  UNL1        0.0265
     90 H           5.7196   -4.9527    0.0000 H       1  UNL1        0.0265
     91 H          16.9345   11.5724    0.0000 H       1  UNL1        0.0265
     92 H          17.3330   12.2627    0.0000 H       1  UNL1        0.0265
     93 H           6.5422   -6.4276    0.0000 H       1  UNL1        0.0265
     94 H           6.9407   -5.7373    0.0000 H       1  UNL1        0.0265
     95 H          16.5104   13.7376    0.0000 H       1  UNL1        0.0265
     96 H          16.1119   13.0473    0.0000 H       1  UNL1        0.0265
     97 H           5.2520   -5.7624    0.0000 H       1  UNL1        0.0266
     98 H           4.8535   -6.4527    0.0000 H       1  UNL1        0.0266
     99 H          17.8005   13.0724    0.0000 H       1  UNL1        0.0265
    100 H          18.1990   13.7627    0.0000 H       1  UNL1        0.0265
    101 H           5.6762   -7.9276    0.0000 H       1  UNL1        0.0298
    102 H           6.0747   -7.2373    0.0000 H       1  UNL1        0.0298
    103 H          17.3764   15.2376    0.0000 H       1  UNL1        0.0263
    104 H          16.9779   14.5473    0.0000 H       1  UNL1        0.0263
    105 H           4.3860   -7.2624    0.0000 H       1  UNL1        0.0697
    106 H           3.9875   -7.9527    0.0000 H       1  UNL1        0.0697
    107 H          18.7645   14.6181    0.0000 H       1  UNL1        0.0230
    108 H          18.9914   15.4650    0.0000 H       1  UNL1        0.0230
    109 H          18.1445   15.6919    0.0000 H       1  UNL1        0.0230
    110 H           4.2690  -10.6550    0.0000 H       1  UNL1        0.0689
    111 H           2.3291  -10.5350    0.0000 H       1  UNL1        0.0626
    112 H           1.4631  -12.0350    0.0000 H       1  UNL1        0.0625
    113 H           4.2690  -12.0350    0.0000 H       1  UNL1        0.0625
    114 H           1.4631  -13.6550    0.0000 H       1  UNL1        0.0654
    115 H           4.2690  -13.6550    0.0000 H       1  UNL1        0.0654
    116 H           2.3291  -15.1550    0.0000 H       1  UNL1        0.2921
@<TRIPOS>BOND
     1     1    34    1
     2     1    36    1
     3     2    36    2
     4     3    44    1
     5     3   116    1
     6     4     5    1
     7     4     6    1
     8     4    45    1
     9     4    46    1
    10     5     7    1
    11     5    47    1
    12     5    48    1
    13     6     8    1
    14     6    49    1
    15     6    50    1
    16     7     9    1
    17     7    51    1
    18     7    52    1
    19     8    10    1
    20     8    53    1
    21     8    54    1
    22     9    11    1
    23     9    55    1
    24     9    56    1
    25    10    12    1
    26    10    57    1
    27    10    58    1
    28    11    13    1
    29    11    59    1
    30    11    60    1
    31    12    14    1
    32    12    61    1
    33    12    62    1
    34    13    15    1
    35    13    63    1
    36    13    64    1
    37    14    16    1
    38    14    65    1
    39    14    66    1
    40    15    17    1
    41    15    67    1
    42    15    68    1
    43    16    18    1
    44    16    69    1
    45    16    70    1
    46    17    19    1
    47    17    71    1
    48    17    72    1
    49    18    20    1
    50    18    73    1
    51    18    74    1
    52    19    21    1
    53    19    75    1
    54    19    76    1
    55    20    22    1
    56    20    77    1
    57    20    78    1
    58    21    23    1
    59    21    79    1
    60    21    80    1
    61    22    24    1
    62    22    81    1
    63    22    82    1
    64    23    25    1
    65    23    83    1
    66    23    84    1
    67    24    26    1
    68    24    85    1
    69    24    86    1
    70    25    27    1
    71    25    87    1
    72    25    88    1
    73    26    28    1
    74    26    89    1
    75    26    90    1
    76    27    29    1
    77    27    91    1
    78    27    92    1
    79    28    30    1
    80    28    93    1
    81    28    94    1
    82    29    31    1
    83    29    95    1
    84    29    96    1
    85    30    32    1
    86    30    97    1
    87    30    98    1
    88    31    33    1
    89    31    99    1
    90    31   100    1
    91    32    34    1
    92    32   101    1
    93    32   102    1
    94    33    35    1
    95    33   103    1
    96    33   104    1
    97    34   105    1
    98    34   106    1
    99    35   107    1
   100    35   108    1
   101    35   109    1
   102    36    37    1
   103    37    38    2
   104    37   110    1
   105    38    39    1
   106    38   111    1
   107    39    40   ar
   108    39    41   ar
   109    40    42   ar
   110    40   112    1
   111    41    43   ar
   112    41   113    1
   113    42    44   ar
   114    42   114    1
   115    43    44   ar
   116    43   115    1
