@<TRIPOS>MOLECULE
IMPHY000643
 38 41 0 0 0
SMALL
GASTEIGER

@<TRIPOS>ATOM
      1 O           5.4920   -1.3797    0.0000 O.2     1  UNL1       -0.4622
      2 O          10.8072    0.4975    0.0000 O.3     1  UNL1       -0.4526
      3 O          10.8134   -1.1119    0.0000 O.3     1  UNL1       -0.4526
      4 O           3.7320    1.6550    0.0000 O.3     1  UNL1       -0.5055
      5 O           5.4804    1.6896    0.0000 O.2     1  UNL1       -0.2866
      6 O           2.0000   -1.3450    0.0000 O.3     1  UNL1       -0.5063
      7 C           7.2622    0.6792    0.0000 C.3     1  UNL1        0.0043
      8 C           6.3981    0.1758    0.0000 C.ar    1  UNL1        0.0391
      9 C           8.1301    0.1825    0.0000 C.ar    1  UNL1       -0.0392
     10 C           4.5981    0.1550    0.0000 C.ar    1  UNL1        0.1060
     11 C           5.4920    0.6897    0.0000 C.ar    1  UNL1        0.1995
     12 C           4.5981   -0.8450    0.0000 C.ar    1  UNL1        0.1454
     13 C           3.7320    0.6550    0.0000 C.ar    1  UNL1        0.1376
     14 C           8.9942    0.6858    0.0000 C.ar    1  UNL1       -0.0126
     15 C           9.8622    0.1892    0.0000 C.ar    1  UNL1        0.1665
     16 C           2.8660    0.1550    0.0000 C.ar    1  UNL1        0.0332
     17 C           6.3981   -0.8658    0.0000 C.ar    1  UNL1        0.0996
     18 C           8.1340   -0.8175    0.0000 C.ar    1  UNL1       -0.0546
     19 C           9.8660   -0.8108    0.0000 C.ar    1  UNL1        0.1662
     20 C           3.7320   -1.3450    0.0000 C.ar    1  UNL1        0.0233
     21 C           2.8660   -0.8450    0.0000 C.ar    1  UNL1        0.1267
     22 C           9.0019   -1.3142    0.0000 C.ar    1  UNL1       -0.0159
     23 C          11.3939   -0.3049    0.0000 C.3     1  UNL1        0.2332
     24 C           2.0000    0.6550    0.0000 C.3     1  UNL1       -0.0327
     25 H           7.6589    1.1556    0.0000 H       1  UNL1        0.0364
     26 H           6.8618    1.1526    0.0000 H       1  UNL1        0.0364
     27 H           8.9918    1.3058    0.0000 H       1  UNL1        0.0658
     28 H           6.9338   -1.1779    0.0000 H       1  UNL1        0.1033
     29 H           7.5982   -1.1296    0.0000 H       1  UNL1        0.0622
     30 H           3.7320   -1.9650    0.0000 H       1  UNL1        0.0691
     31 H           9.0043   -1.9342    0.0000 H       1  UNL1        0.0655
     32 H          11.8564   -0.7179    0.0000 H       1  UNL1        0.1166
     33 H          11.8532    0.1116    0.0000 H       1  UNL1        0.1166
     34 H           2.3100    1.1919    0.0000 H       1  UNL1        0.0280
     35 H           1.4631    0.9650    0.0000 H       1  UNL1        0.0280
     36 H           1.6900    0.1181    0.0000 H       1  UNL1        0.0280
     37 H           3.1951    1.9650    0.0000 H       1  UNL1        0.2922
     38 H           2.0000   -1.9650    0.0000 H       1  UNL1        0.2921
@<TRIPOS>BOND
     1     1    12   ar
     2     1    17   ar
     3     2    15    1
     4     2    23    1
     5     3    19    1
     6     3    23    1
     7     4    13    1
     8     4    37    1
     9     5    11    2
    10     6    21    1
    11     6    38    1
    12     7     8    1
    13     7     9    1
    14     7    25    1
    15     7    26    1
    16     8    11   ar
    17     8    17   ar
    18     9    14   ar
    19     9    18   ar
    20    10    11   ar
    21    10    12   ar
    22    10    13   ar
    23    12    20   ar
    24    13    16   ar
    25    14    15   ar
    26    14    27    1
    27    15    19   ar
    28    16    21   ar
    29    16    24    1
    30    17    28    1
    31    18    22   ar
    32    18    29    1
    33    19    22   ar
    34    20    21   ar
    35    20    30    1
    36    22    31    1
    37    23    32    1
    38    23    33    1
    39    24    34    1
    40    24    35    1
    41    24    36    1
