@<TRIPOS>MOLECULE
IMPHY003766
 35 36 0 0 0
SMALL
GASTEIGER

@<TRIPOS>ATOM
      1 O           5.5443   -2.0547    0.0000 O.2     1  UNL1       -0.4665
      2 O           2.8660    0.2500    0.0000 O.2     1  UNL1       -0.2872
      3 C           3.7320   -2.2500    0.0000 C.3     1  UNL1        0.0271
      4 C           4.5981   -1.7500    0.0000 C.ar    1  UNL1        0.1198
      5 C           2.0000   -0.2500    0.0000 C.3     1  UNL1       -0.0308
      6 C           2.0000    0.7500    0.0000 C.3     1  UNL1       -0.0282
      7 C           4.5981   -0.7500    0.0000 C.ar    1  UNL1        0.0657
      8 C           2.8660   -1.7500    0.0000 C.2     1  UNL1       -0.0692
      9 C           2.8660   -0.7500    0.0000 C.2     1  UNL1       -0.0843
     10 C           2.8660    1.2500    0.0000 C.2     1  UNL1       -0.0687
     11 C           5.5443   -0.4453    0.0000 C.ar    1  UNL1       -0.0016
     12 C           3.7320   -0.2500    0.0000 C.2     1  UNL1        0.1896
     13 C           3.7320    0.7500    0.0000 C.2     1  UNL1       -0.0152
     14 C           2.0000   -2.2500    0.0000 C.3     1  UNL1       -0.0434
     15 C           6.1279   -1.2500    0.0000 C.ar    1  UNL1        0.0957
     16 C           2.8660    2.2500    0.0000 C.3     1  UNL1       -0.0434
     17 C           5.8550    0.5053    0.0000 C.3     1  UNL1       -0.0360
     18 H           3.3335   -2.7250    0.0000 H       1  UNL1        0.0389
     19 H           4.1306   -2.7250    0.0000 H       1  UNL1        0.0389
     20 H           1.3894   -0.1423    0.0000 H       1  UNL1        0.0310
     21 H           1.7880   -0.8326    0.0000 H       1  UNL1        0.0310
     22 H           1.7880    1.3326    0.0000 H       1  UNL1        0.0313
     23 H           1.3894    0.6423    0.0000 H       1  UNL1        0.0313
     24 H           3.4766   -0.8577    0.0000 H       1  UNL1        0.0572
     25 H           4.2690    1.0600    0.0000 H       1  UNL1        0.0655
     26 H           1.6900   -1.7131    0.0000 H       1  UNL1        0.0274
     27 H           1.4631   -2.5600    0.0000 H       1  UNL1        0.0274
     28 H           2.3100   -2.7869    0.0000 H       1  UNL1        0.0274
     29 H           6.7479   -1.2500    0.0000 H       1  UNL1        0.1032
     30 H           3.4860    2.2500    0.0000 H       1  UNL1        0.0274
     31 H           2.8660    2.8700    0.0000 H       1  UNL1        0.0274
     32 H           2.2460    2.2500    0.0000 H       1  UNL1        0.0274
     33 H           6.4443    0.3126    0.0000 H       1  UNL1        0.0279
     34 H           6.0476    1.0946    0.0000 H       1  UNL1        0.0279
     35 H           5.2656    0.6979    0.0000 H       1  UNL1        0.0279
@<TRIPOS>BOND
     1     1     4   ar
     2     1    15   ar
     3     2    12    2
     4     3     4    1
     5     3     8    1
     6     3    18    1
     7     3    19    1
     8     4     7   ar
     9     5     6    1
    10     5     9    1
    11     5    20    1
    12     5    21    1
    13     6    10    1
    14     6    22    1
    15     6    23    1
    16     7    11   ar
    17     7    12    1
    18     8     9    2
    19     8    14    1
    20     9    24    1
    21    10    13    2
    22    10    16    1
    23    11    15   ar
    24    11    17    1
    25    12    13    1
    26    13    25    1
    27    14    26    1
    28    14    27    1
    29    14    28    1
    30    15    29    1
    31    16    30    1
    32    16    31    1
    33    16    32    1
    34    17    33    1
    35    17    34    1
    36    17    35    1
