@<TRIPOS>MOLECULE
IMPHY008985
 40 42 0 0 0
SMALL
GASTEIGER

@<TRIPOS>ATOM
      1 O           8.0622    1.7890    0.0000 O.3     1  UNL1       -0.4452
      2 O           9.7942    0.7890    0.0000 O.3     1  UNL1       -0.4427
      3 O           9.2942    4.6550    0.0000 O.3     1  UNL1       -0.2139
      4 O          11.5263    1.7890    0.0000 O.3     1  UNL1       -0.2190
      5 O          11.2942    4.6550    0.0000 O.co2   1  UNL1       -0.2429
      6 O           9.7942    5.5210    0.0000 O.co2   1  UNL1       -0.2429
      7 O           8.0622    0.7890    0.0000 O.2     1  UNL1       -0.2449
      8 O           7.1962    3.2890    0.0000 O.2     1  UNL1       -0.2449
      9 O           6.3301   -4.2110    0.0000 O.3     1  UNL1       -0.4681
     10 O           9.7942   -4.2110    0.0000 O.3     1  UNL1       -0.4681
     11 O           8.0622   -5.2110    0.0000 O.3     1  UNL1       -0.2801
     12 O           2.0000    2.2890    0.0000 O.3     1  UNL1       -0.2831
     13 O           2.0000    0.2890    0.0000 O.3     1  UNL1       -0.2831
     14 C           9.7942    3.7890    0.0000 C.3     1  UNL1        0.2250
     15 C           8.9282    2.2890    0.0000 C.3     1  UNL1        0.2144
     16 C           9.7942    1.7890    0.0000 C.3     1  UNL1        0.2389
     17 C           8.9282    3.2890    0.0000 C.3     1  UNL1        0.0891
     18 C          10.6603    2.2890    0.0000 C.3     1  UNL1        0.1984
     19 C          10.6603    3.2890    0.0000 C.3     1  UNL1        0.0785
     20 C          10.2942    4.6550    0.0000 C.2     1  UNL1        0.3918
     21 C           8.9282    0.2890    0.0000 C.2     1  UNL1        0.3415
     22 C           7.1962    2.2890    0.0000 C.2     1  UNL1        0.3414
     23 C           8.9282   -0.7110    0.0000 C.2     1  UNL1        0.0819
     24 C           6.3301    1.7890    0.0000 C.2     1  UNL1        0.0819
     25 C           8.0622   -1.2110    0.0000 C.2     1  UNL1        0.0069
     26 C           5.4641    2.2890    0.0000 C.2     1  UNL1        0.0068
     27 C           8.0622   -2.2110    0.0000 C.ar    1  UNL1        0.0065
     28 C           4.5981    1.7890    0.0000 C.ar    1  UNL1        0.0036
     29 C           8.9282   -2.7110    0.0000 C.ar    1  UNL1        0.0404
     30 C           7.1962   -2.7110    0.0000 C.ar    1  UNL1        0.0404
     31 C           3.7321    2.2890    0.0000 C.ar    1  UNL1        0.0454
     32 C           4.5981    0.7890    0.0000 C.ar    1  UNL1        0.0035
     33 C           7.1962   -3.7110    0.0000 C.ar    1  UNL1        0.1805
     34 C           8.9282   -3.7110    0.0000 C.ar    1  UNL1        0.1805
     35 C           8.0622   -4.2110    0.0000 C.ar    1  UNL1        0.2627
     36 C           2.8660    1.7890    0.0000 C.ar    1  UNL1        0.2343
     37 C           3.7321    0.2890    0.0000 C.ar    1  UNL1        0.0454
     38 C           2.8660    0.7890    0.0000 C.ar    1  UNL1        0.2343
     39 C           5.4641   -3.7110    0.0000 C.3     1  UNL1        0.2526
     40 C          10.6603   -3.7110    0.0000 C.3     1  UNL1        0.2526
@<TRIPOS>BOND
     1     1    22    1
     2     2    16    1
     3     2    21    1
     4     4    18    1
     5     5    20   ar
     6     6    20   ar
     7     7    21    2
     8     8    22    2
     9     9    33    1
    10     9    39    1
    11    10    34    1
    12    10    40    1
    13    11    35    1
    14    12    36    1
    15    13    38    1
    16    14     3    1
    17    14    17    1
    18    14    19    1
    19    14    20    1
    20    15     1    1
    21    15    16    1
    22    15    17    1
    23    16    18    1
    24    18    19    1
    25    21    23    1
    26    22    24    1
    27    23    25    2
    28    24    26    2
    29    25    27    1
    30    26    28    1
    31    27    29   ar
    32    27    30   ar
    33    28    31   ar
    34    28    32   ar
    35    29    34   ar
    36    30    33   ar
    37    31    36   ar
    38    32    37   ar
    39    33    35   ar
    40    34    35   ar
    41    36    38   ar
    42    37    38   ar
