@<TRIPOS>MOLECULE
IMPHY000787
 42 42 0 0 0
SMALL
GASTEIGER

@<TRIPOS>ATOM
      1 O           4.7320   -0.0600    0.0000 O.3     1  UNL1       -0.3882
      2 O           2.0000   -3.0600    0.0000 O.2     1  UNL1       -0.2924
      3 O           6.3301    3.4400    0.0000 O.3     1  UNL1       -0.3851
      4 C           3.7320   -1.0600    0.0000 C.3     1  UNL1       -0.0017
      5 C           3.7320   -0.0600    0.0000 C.3     1  UNL1        0.0702
      6 C           2.8660   -1.5600    0.0000 C.3     1  UNL1        0.0158
      7 C           4.5981   -1.5600    0.0000 C.3     1  UNL1       -0.0283
      8 C           3.7320    0.9400    0.0000 C.3     1  UNL1       -0.0057
      9 C           2.7320   -0.0600    0.0000 C.3     1  UNL1       -0.0355
     10 C           2.8660   -2.5600    0.0000 C.2     1  UNL1        0.1590
     11 C           4.5981   -2.5600    0.0000 C.2     1  UNL1       -0.0774
     12 C           3.7320   -3.0600    0.0000 C.2     1  UNL1       -0.0120
     13 C           4.5981    1.4400    0.0000 C.2     1  UNL1       -0.0826
     14 C           4.5981    2.4400    0.0000 C.2     1  UNL1       -0.0572
     15 C           3.7320   -4.0600    0.0000 C.3     1  UNL1       -0.0367
     16 C           5.4641    2.9400    0.0000 C.3     1  UNL1        0.0786
     17 C           4.9641    3.8060    0.0000 C.3     1  UNL1       -0.0327
     18 C           5.9641    2.0740    0.0000 C.3     1  UNL1       -0.0327
     19 H           4.4682   -0.6350    0.0000 H       1  UNL1        0.0336
     20 H           2.6540   -0.9774    0.0000 H       1  UNL1        0.0349
     21 H           2.2554   -1.6677    0.0000 H       1  UNL1        0.0349
     22 H           5.2087   -1.6677    0.0000 H       1  UNL1        0.0311
     23 H           4.8101   -0.9774    0.0000 H       1  UNL1        0.0311
     24 H           3.5200    1.5226    0.0000 H       1  UNL1        0.0335
     25 H           3.1215    0.8323    0.0000 H       1  UNL1        0.0335
     26 H           2.7320    0.5600    0.0000 H       1  UNL1        0.0257
     27 H           2.1120   -0.0600    0.0000 H       1  UNL1        0.0257
     28 H           2.7320   -0.6800    0.0000 H       1  UNL1        0.0257
     29 H           5.1350   -2.8700    0.0000 H       1  UNL1        0.0576
     30 H           5.0420    0.4769    0.0000 H       1  UNL1        0.2102
     31 H           5.1350    1.1300    0.0000 H       1  UNL1        0.0571
     32 H           4.0611    2.7500    0.0000 H       1  UNL1        0.0597
     33 H           3.1120   -4.0600    0.0000 H       1  UNL1        0.0278
     34 H           3.7320   -4.6800    0.0000 H       1  UNL1        0.0278
     35 H           4.3520   -4.0600    0.0000 H       1  UNL1        0.0278
     36 H           5.5010    4.1160    0.0000 H       1  UNL1        0.0260
     37 H           4.6541    4.3430    0.0000 H       1  UNL1        0.0260
     38 H           4.4272    3.4960    0.0000 H       1  UNL1        0.0260
     39 H           5.4272    1.7640    0.0000 H       1  UNL1        0.0260
     40 H           6.2741    1.5370    0.0000 H       1  UNL1        0.0260
     41 H           6.5010    2.3840    0.0000 H       1  UNL1        0.0260
     42 H           6.3301    4.0600    0.0000 H       1  UNL1        0.2106
@<TRIPOS>BOND
     1     5     1    1
     2     1    30    1
     3     2    10    2
     4     3    16    1
     5     3    42    1
     6     4     5    1
     7     4     6    1
     8     4     7    1
     9     4    19    1
    10     5     8    1
    11     5     9    1
    12     6    10    1
    13     6    20    1
    14     6    21    1
    15     7    11    1
    16     7    22    1
    17     7    23    1
    18     8    13    1
    19     8    24    1
    20     8    25    1
    21     9    26    1
    22     9    27    1
    23     9    28    1
    24    10    12    1
    25    11    12    2
    26    11    29    1
    27    12    15    1
    28    13    14    2
    29    13    31    1
    30    14    16    1
    31    14    32    1
    32    15    33    1
    33    15    34    1
    34    15    35    1
    35    16    17    1
    36    16    18    1
    37    17    36    1
    38    17    37    1
    39    17    38    1
    40    18    39    1
    41    18    40    1
    42    18    41    1
