@<TRIPOS>MOLECULE
IMPHY003197
 75 80 0 0 0
SMALL
GASTEIGER

@<TRIPOS>ATOM
      1 O           5.5954   -2.9034    0.0000 O.3     1  UNL1       -0.3448
      2 O           3.9300   -1.8222    0.0000 O.3     1  UNL1       -0.3480
      3 O          10.1833    3.5077    0.0000 O.2     1  UNL1       -0.5036
      4 O          12.0027    2.4758    0.0000 O.2     1  UNL1       -0.2879
      5 C           6.6628   -0.6686    0.0000 C.3     1  UNL1       -0.0233
      6 C           7.5288   -1.1686    0.0000 C.3     1  UNL1       -0.0295
      7 C           5.9258   -1.3356    0.0000 C.3     1  UNL1       -0.0015
      8 C           8.3948   -0.6686    0.0000 C.3     1  UNL1       -0.0303
      9 C           6.3309   -2.2434    0.0000 C.3     1  UNL1        0.0660
     10 C           7.3196   -2.1404    0.0000 C.3     1  UNL1       -0.0226
     11 C           8.3948    0.3314    0.0000 C.3     1  UNL1       -0.0249
     12 C           4.9434   -1.4423    0.0000 C.3     1  UNL1        0.0160
     13 C           6.6628    0.3314    0.0000 C.3     1  UNL1       -0.0467
     14 C           7.5288    0.8314    0.0000 C.3     1  UNL1       -0.0484
     15 C           4.7396   -2.4093    0.0000 C.3     1  UNL1        0.1732
     16 C           9.2888    0.8661    0.0000 C.3     1  UNL1        0.0147
     17 C           5.7968   -0.1686    0.0000 C.3     1  UNL1       -0.0590
     18 C           9.2888   -1.2032    0.0000 C.3     1  UNL1       -0.0311
     19 C          10.1949    0.3523    0.0000 C.2     1  UNL1       -0.0502
     20 C           4.2723   -0.7009    0.0000 C.3     1  UNL1       -0.0572
     21 C           4.6359   -3.4039    0.0000 C.3     1  UNL1        0.0020
     22 C          10.1949   -0.6894    0.0000 C.2     1  UNL1       -0.0827
     23 C           8.4189    1.3594    0.0000 C.3     1  UNL1       -0.0519
     24 C           9.2637    1.9508    0.0000 C.2     1  UNL1       -0.0288
     25 C          11.1386    0.8875    0.0000 C.3     1  UNL1        0.0527
     26 C           3.7227   -3.8114    0.0000 C.3     1  UNL1       -0.0435
     27 C           2.9132   -3.2244    0.0000 C.3     1  UNL1       -0.0201
     28 C           3.0169   -2.2297    0.0000 C.3     1  UNL1        0.0535
     29 C          10.1949    2.5077    0.0000 C.2     1  UNL1        0.1569
     30 C          11.1386    1.9725    0.0000 C.2     1  UNL1        0.2063
     31 C          12.1386    0.8836    0.0000 C.3     1  UNL1       -0.0488
     32 C          11.6353    0.0195    0.0000 C.3     1  UNL1       -0.0488
     33 C           2.0000   -3.6319    0.0000 C.3     1  UNL1       -0.0603
     34 H           8.2158   -1.6691    0.0000 H       1  UNL1        0.0310
     35 H           5.5777   -0.5602    0.0000 H       1  UNL1        0.0335
     36 H           8.3883   -1.5185    0.0000 H       1  UNL1        0.0310
     37 H           6.6756   -3.0204    0.0000 H       1  UNL1        0.0600
     38 H           7.3187   -2.7604    0.0000 H       1  UNL1        0.0293
     39 H           7.9361   -2.2064    0.0000 H       1  UNL1        0.0293
     40 H           9.1342   -0.0879    0.0000 H       1  UNL1        0.0315
     41 H           4.3448   -1.6041    0.0000 H       1  UNL1        0.0354
     42 H           6.4507    0.9141    0.0000 H       1  UNL1        0.0271
     43 H           6.0522    0.2238    0.0000 H       1  UNL1        0.0271
     44 H           7.9274    1.3064    0.0000 H       1  UNL1        0.0269
     45 H           7.1303    1.3064    0.0000 H       1  UNL1        0.0269
     46 H           6.1068    0.3684    0.0000 H       1  UNL1        0.0235
     47 H           5.2598    0.1414    0.0000 H       1  UNL1        0.0235
     48 H           5.4868   -0.7055    0.0000 H       1  UNL1        0.0235
     49 H           8.8842   -1.6730    0.0000 H       1  UNL1        0.0310
     50 H           9.6824   -1.6822    0.0000 H       1  UNL1        0.0310
     51 H           4.7320   -0.2849    0.0000 H       1  UNL1        0.0234
     52 H           3.8562   -0.2413    0.0000 H       1  UNL1        0.0234
     53 H           3.8126   -1.1170    0.0000 H       1  UNL1        0.0234
     54 H           4.7864   -4.0054    0.0000 H       1  UNL1        0.0317
     55 H           5.2544   -3.3601    0.0000 H       1  UNL1        0.0317
     56 H          10.7306   -1.0014    0.0000 H       1  UNL1        0.0572
     57 H           8.7248    1.8987    0.0000 H       1  UNL1        0.0241
     58 H           7.8796    1.6653    0.0000 H       1  UNL1        0.0241
     59 H           8.1131    0.8201    0.0000 H       1  UNL1        0.0241
     60 H           8.7209    2.2504    0.0000 H       1  UNL1        0.0618
     61 H           3.2771   -4.2425    0.0000 H       1  UNL1        0.0270
     62 H           4.0699   -4.3251    0.0000 H       1  UNL1        0.0270
     63 H           2.4113   -2.8604    0.0000 H       1  UNL1        0.0320
     64 H           2.8664   -1.6283    0.0000 H       1  UNL1        0.0563
     65 H           2.3984   -2.2735    0.0000 H       1  UNL1        0.0563
     66 H          12.1362    0.2636    0.0000 H       1  UNL1        0.0242
     67 H          12.7586    0.8812    0.0000 H       1  UNL1        0.0242
     68 H          12.1410    1.5036    0.0000 H       1  UNL1        0.0242
     69 H          11.0972   -0.2884    0.0000 H       1  UNL1        0.0242
     70 H          11.9432   -0.5186    0.0000 H       1  UNL1        0.0242
     71 H          12.1734    0.3275    0.0000 H       1  UNL1        0.0242
     72 H           1.7473   -3.0657    0.0000 H       1  UNL1        0.0233
     73 H           1.4338   -3.8845    0.0000 H       1  UNL1        0.0233
     74 H           2.2527   -4.1980    0.0000 H       1  UNL1        0.0233
     75 H           9.6428    3.8114    0.0000 H       1  UNL1        0.2923
@<TRIPOS>BOND
     1     1     9    1
     2    15     1    1
     3     2    15    1
     4     2    28    1
     5     3    29    1
     6     3    75    1
     7     4    30    2
     8     5     6    1
     9     5     7    1
    10     5    13    1
    11     5    17    1
    12     6     8    1
    13     6    10    1
    14     6    34    1
    15     7     9    1
    16     7    12    1
    17     7    35    1
    18     8    11    1
    19     8    18    1
    20     8    36    1
    21     9    10    1
    22     9    37    1
    23    10    38    1
    24    10    39    1
    25    11    14    1
    26    11    16    1
    27    11    40    1
    28    12    15    1
    29    12    20    1
    30    12    41    1
    31    13    14    1
    32    13    42    1
    33    13    43    1
    34    14    44    1
    35    14    45    1
    36    15    21    1
    37    16    19    1
    38    16    23    1
    39    16    24    1
    40    17    46    1
    41    17    47    1
    42    17    48    1
    43    18    22    1
    44    18    49    1
    45    18    50    1
    46    19    22    2
    47    19    25    1
    48    20    51    1
    49    20    52    1
    50    20    53    1
    51    21    26    1
    52    21    54    1
    53    21    55    1
    54    22    56    1
    55    23    57    1
    56    23    58    1
    57    23    59    1
    58    24    29    2
    59    24    60    1
    60    25    30    1
    61    25    31    1
    62    25    32    1
    63    26    27    1
    64    26    61    1
    65    26    62    1
    66    27    28    1
    67    27    33    1
    68    27    63    1
    69    28    64    1
    70    28    65    1
    71    29    30    1
    72    31    66    1
    73    31    67    1
    74    31    68    1
    75    32    69    1
    76    32    70    1
    77    32    71    1
    78    33    72    1
    79    33    73    1
    80    33    74    1
