@<TRIPOS>MOLECULE
IMPHY012823
 26 26 0 0 0
SMALL
GASTEIGER

@<TRIPOS>ATOM
      1 C           4.2690   -0.2500    0.0000 C.3     1  UNL1       -0.0462
      2 C           3.4030    0.2500    0.0000 C.3     1  UNL1       -0.0462
      3 C           4.2690   -1.2500    0.0000 C.3     1  UNL1       -0.0345
      4 C           5.1350    0.2500    0.0000 C.3     1  UNL1       -0.0345
      5 C           2.5369   -0.2500    0.0000 C.3     1  UNL1       -0.0345
      6 C           3.4030    1.2500    0.0000 C.3     1  UNL1       -0.0345
      7 C           3.4030   -1.7500    0.0000 C.2     1  UNL1       -0.0879
      8 C           5.1350    1.2500    0.0000 C.2     1  UNL1       -0.0879
      9 C           2.5369   -1.2500    0.0000 C.2     1  UNL1       -0.0879
     10 C           4.2690    1.7500    0.0000 C.2     1  UNL1       -0.0879
     11 H           4.0569    0.3326    0.0000 H       1  UNL1        0.0271
     12 H           3.6584   -0.3577    0.0000 H       1  UNL1        0.0271
     13 H           3.6150   -0.3326    0.0000 H       1  UNL1        0.0271
     14 H           4.0135    0.3577    0.0000 H       1  UNL1        0.0271
     15 H           4.4810   -1.8326    0.0000 H       1  UNL1        0.0307
     16 H           4.8796   -1.1423    0.0000 H       1  UNL1        0.0307
     17 H           5.3471   -0.3326    0.0000 H       1  UNL1        0.0307
     18 H           5.7456    0.3577    0.0000 H       1  UNL1        0.0307
     19 H           2.3249    0.3326    0.0000 H       1  UNL1        0.0307
     20 H           1.9264   -0.3577    0.0000 H       1  UNL1        0.0307
     21 H           3.1909    1.8326    0.0000 H       1  UNL1        0.0307
     22 H           2.7924    1.1423    0.0000 H       1  UNL1        0.0307
     23 H           3.4030   -2.3700    0.0000 H       1  UNL1        0.0569
     24 H           5.6720    1.5600    0.0000 H       1  UNL1        0.0569
     25 H           2.0000   -1.5600    0.0000 H       1  UNL1        0.0569
     26 H           4.2690    2.3700    0.0000 H       1  UNL1        0.0569
@<TRIPOS>BOND
     1     1     3    1
     2     1     4    1
     3     1    11    1
     4     1    12    1
     5     2     5    1
     6     2     6    1
     7     2    13    1
     8     2    14    1
     9     3     7    1
    10     3    15    1
    11     3    16    1
    12     4     8    1
    13     4    17    1
    14     4    18    1
    15     5     9    1
    16     5    19    1
    17     5    20    1
    18     6    10    1
    19     6    21    1
    20     6    22    1
    21     7     9    2
    22     7    23    1
    23     8    10    2
    24     8    24    1
    25     9    25    1
    26    10    26    1
