@<TRIPOS>MOLECULE
IMPHY011655
 48 47 0 0 0
SMALL
GASTEIGER

@<TRIPOS>ATOM
      1 O           2.5369    0.7500    0.0000 O.3     1  UNL1       -0.4806
      2 O           3.4030   -0.7500    0.0000 O.2     1  UNL1       -0.2510
      3 C          12.9292    0.7500    0.0000 C.3     1  UNL1       -0.0530
      4 C          12.0632    0.2500    0.0000 C.3     1  UNL1       -0.0528
      5 C          13.7953    0.2500    0.0000 C.3     1  UNL1       -0.0531
      6 C          11.1972    0.7500    0.0000 C.3     1  UNL1       -0.0496
      7 C          14.6613    0.7500    0.0000 C.3     1  UNL1       -0.0533
      8 C          10.3312    0.2500    0.0000 C.3     1  UNL1       -0.0348
      9 C           6.8671    0.2500    0.0000 C.3     1  UNL1       -0.0496
     10 C          15.5273    0.2500    0.0000 C.3     1  UNL1       -0.0559
     11 C           6.0010    0.7500    0.0000 C.3     1  UNL1       -0.0523
     12 C           7.7331    0.7500    0.0000 C.3     1  UNL1       -0.0348
     13 C           5.1350    0.2500    0.0000 C.3     1  UNL1       -0.0430
     14 C           9.4651    0.7500    0.0000 C.2     1  UNL1       -0.0879
     15 C           8.5991    0.2500    0.0000 C.2     1  UNL1       -0.0879
     16 C          16.3933    0.7500    0.0000 C.3     1  UNL1       -0.0653
     17 C           4.2690    0.7500    0.0000 C.3     1  UNL1        0.0448
     18 C           3.4030    0.2500    0.0000 C.2     1  UNL1        0.3047
     19 H          13.3278    1.2250    0.0000 H       1  UNL1        0.0265
     20 H          12.5307    1.2250    0.0000 H       1  UNL1        0.0265
     21 H          11.6647   -0.2249    0.0000 H       1  UNL1        0.0265
     22 H          12.4617   -0.2249    0.0000 H       1  UNL1        0.0265
     23 H          13.3967   -0.2249    0.0000 H       1  UNL1        0.0265
     24 H          14.1938   -0.2249    0.0000 H       1  UNL1        0.0265
     25 H          11.5957    1.2250    0.0000 H       1  UNL1        0.0268
     26 H          10.7987    1.2250    0.0000 H       1  UNL1        0.0268
     27 H          15.0598    1.2250    0.0000 H       1  UNL1        0.0265
     28 H          14.2628    1.2250    0.0000 H       1  UNL1        0.0265
     29 H           9.9326   -0.2249    0.0000 H       1  UNL1        0.0307
     30 H          10.7297   -0.2249    0.0000 H       1  UNL1        0.0307
     31 H           6.4685   -0.2249    0.0000 H       1  UNL1        0.0268
     32 H           7.2656   -0.2249    0.0000 H       1  UNL1        0.0268
     33 H          15.1288   -0.2249    0.0000 H       1  UNL1        0.0263
     34 H          15.9258   -0.2249    0.0000 H       1  UNL1        0.0263
     35 H           6.3996    1.2250    0.0000 H       1  UNL1        0.0265
     36 H           5.6025    1.2250    0.0000 H       1  UNL1        0.0265
     37 H           8.1316    1.2250    0.0000 H       1  UNL1        0.0307
     38 H           7.3346    1.2250    0.0000 H       1  UNL1        0.0307
     39 H           4.7365   -0.2249    0.0000 H       1  UNL1        0.0270
     40 H           5.5335   -0.2249    0.0000 H       1  UNL1        0.0270
     41 H           9.4651    1.3700    0.0000 H       1  UNL1        0.0569
     42 H           8.5991   -0.3700    0.0000 H       1  UNL1        0.0569
     43 H           4.6675    1.2250    0.0000 H       1  UNL1        0.0377
     44 H           3.8705    1.2250    0.0000 H       1  UNL1        0.0377
     45 H          16.7033    0.2131    0.0000 H       1  UNL1        0.0230
     46 H          16.9303    1.0600    0.0000 H       1  UNL1        0.0230
     47 H          16.0833    1.2869    0.0000 H       1  UNL1        0.0230
     48 H           2.0000    0.4400    0.0000 H       1  UNL1        0.2951
@<TRIPOS>BOND
     1     1    18    1
     2     1    48    1
     3     2    18    2
     4     3     4    1
     5     3     5    1
     6     3    19    1
     7     3    20    1
     8     4     6    1
     9     4    21    1
    10     4    22    1
    11     5     7    1
    12     5    23    1
    13     5    24    1
    14     6     8    1
    15     6    25    1
    16     6    26    1
    17     7    10    1
    18     7    27    1
    19     7    28    1
    20     8    14    1
    21     8    29    1
    22     8    30    1
    23     9    11    1
    24     9    12    1
    25     9    31    1
    26     9    32    1
    27    10    16    1
    28    10    33    1
    29    10    34    1
    30    11    13    1
    31    11    35    1
    32    11    36    1
    33    12    15    1
    34    12    37    1
    35    12    38    1
    36    13    17    1
    37    13    39    1
    38    13    40    1
    39    14    15    2
    40    14    41    1
    41    15    42    1
    42    16    45    1
    43    16    46    1
    44    16    47    1
    45    17    18    1
    46    17    43    1
    47    17    44    1
