@<TRIPOS>MOLECULE
IMPHY004563
 66 68 0 0 0
SMALL
GASTEIGER

@<TRIPOS>ATOM
      1 O           7.7331   -0.9050    0.0000 O.3     1  UNL1       -0.3405
      2 O           9.4651   -0.9050    0.0000 O.3     1  UNL1       -0.3460
      3 O           6.0010    0.0950    0.0000 O.3     1  UNL1       -0.3460
      4 O           5.1350    1.5950    0.0000 O.3     1  UNL1       -0.3405
      5 O          10.3312    1.5950    0.0000 O.3     1  UNL1       -0.3407
      6 O           6.0010   -2.9050    0.0000 O.3     1  UNL1       -0.3865
      7 O           7.7331   -3.9050    0.0000 O.3     1  UNL1       -0.3864
      8 O           9.4651   -2.9050    0.0000 O.3     1  UNL1       -0.3841
      9 O           4.2690   -0.9050    0.0000 O.3     1  UNL1       -0.3841
     10 O          11.1972   -0.9050    0.0000 O.3     1  UNL1       -0.3865
     11 O           2.5369    0.0950    0.0000 O.3     1  UNL1       -0.3864
     12 O           2.5369    2.0950    0.0000 O.3     1  UNL1       -0.3865
     13 O          12.9292    0.0950    0.0000 O.3     1  UNL1       -0.3864
     14 O          12.9292    2.0950    0.0000 O.3     1  UNL1       -0.3841
     15 O          11.1972    3.0950    0.0000 O.3     1  UNL1       -0.3649
     16 O           5.1350    3.5950    0.0000 O.3     1  UNL1       -0.3924
     17 C           6.8671   -1.4050    0.0000 C.3     1  UNL1        0.1134
     18 C           6.8671   -2.4050    0.0000 C.3     1  UNL1        0.1119
     19 C           7.7331   -2.9050    0.0000 C.3     1  UNL1        0.1141
     20 C           8.5991   -2.4050    0.0000 C.3     1  UNL1        0.1341
     21 C           8.5991   -1.4050    0.0000 C.3     1  UNL1        0.1880
     22 C          10.3312    0.5950    0.0000 C.3     1  UNL1        0.1134
     23 C           5.1350    0.5950    0.0000 C.3     1  UNL1        0.1880
     24 C           4.2690    0.0950    0.0000 C.3     1  UNL1        0.1341
     25 C          11.1972    0.0950    0.0000 C.3     1  UNL1        0.1119
     26 C           3.4030    0.5950    0.0000 C.3     1  UNL1        0.1141
     27 C           6.0010   -0.9050    0.0000 C.3     1  UNL1        0.0796
     28 C           3.4030    1.5950    0.0000 C.3     1  UNL1        0.1119
     29 C          12.0632    0.5950    0.0000 C.3     1  UNL1        0.1141
     30 C           4.2690    2.0950    0.0000 C.3     1  UNL1        0.1130
     31 C           9.4651    0.0950    0.0000 C.3     1  UNL1        0.0796
     32 C          12.0632    1.5950    0.0000 C.3     1  UNL1        0.1339
     33 C          11.1972    2.0950    0.0000 C.3     1  UNL1        0.1854
     34 C           4.2690    3.0950    0.0000 C.3     1  UNL1        0.0730
     35 H           6.8671   -0.7850    0.0000 H       1  UNL1        0.0647
     36 H           6.8671   -3.0250    0.0000 H       1  UNL1        0.0647
     37 H           8.2700   -3.2150    0.0000 H       1  UNL1        0.0648
     38 H           9.1360   -2.0950    0.0000 H       1  UNL1        0.0671
     39 H           8.5991   -0.7850    0.0000 H       1  UNL1        0.0937
     40 H           9.7942    0.9050    0.0000 H       1  UNL1        0.0647
     41 H           5.1350   -0.0250    0.0000 H       1  UNL1        0.0937
     42 H           3.7320   -0.2150    0.0000 H       1  UNL1        0.0671
     43 H          11.7341   -0.2150    0.0000 H       1  UNL1        0.0647
     44 H           2.8660    0.9050    0.0000 H       1  UNL1        0.0648
     45 H           5.3905   -0.7973    0.0000 H       1  UNL1        0.0587
     46 H           5.7890   -1.4876    0.0000 H       1  UNL1        0.0587
     47 H           3.4030    2.2150    0.0000 H       1  UNL1        0.0647
     48 H          12.6002    0.9050    0.0000 H       1  UNL1        0.0648
     49 H           4.8059    2.4050    0.0000 H       1  UNL1        0.0647
     50 H           9.2531    0.6776    0.0000 H       1  UNL1        0.0587
     51 H           8.8546   -0.0127    0.0000 H       1  UNL1        0.0587
     52 H          12.0632    2.2150    0.0000 H       1  UNL1        0.0671
     53 H          10.6603    2.4050    0.0000 H       1  UNL1        0.0935
     54 H           4.0569    3.6776    0.0000 H       1  UNL1        0.0584
     55 H           3.6584    2.9873    0.0000 H       1  UNL1        0.0584
     56 H           5.4641   -2.5950    0.0000 H       1  UNL1        0.2100
     57 H           7.1962   -4.2150    0.0000 H       1  UNL1        0.2100
     58 H          10.0021   -2.5950    0.0000 H       1  UNL1        0.2101
     59 H           3.7320   -1.2150    0.0000 H       1  UNL1        0.2101
     60 H          11.7341   -1.2150    0.0000 H       1  UNL1        0.2100
     61 H           2.0000    0.4050    0.0000 H       1  UNL1        0.2100
     62 H           2.5369    2.7150    0.0000 H       1  UNL1        0.2100
     63 H          13.4662    0.4050    0.0000 H       1  UNL1        0.2100
     64 H          12.9292    2.7150    0.0000 H       1  UNL1        0.2101
     65 H          10.6603    3.4050    0.0000 H       1  UNL1        0.2126
     66 H           5.1350    4.2150    0.0000 H       1  UNL1        0.2095
@<TRIPOS>BOND
     1     1    17    1
     2     1    21    1
     3    21     2    1
     4     2    31    1
     5    23     3    1
     6     3    27    1
     7     4    23    1
     8     4    30    1
     9     5    22    1
    10     5    33    1
    11    18     6    1
    12     6    56    1
    13    19     7    1
    14     7    57    1
    15    20     8    1
    16     8    58    1
    17    24     9    1
    18     9    59    1
    19    25    10    1
    20    10    60    1
    21    26    11    1
    22    11    61    1
    23    28    12    1
    24    12    62    1
    25    29    13    1
    26    13    63    1
    27    32    14    1
    28    14    64    1
    29    33    15    1
    30    15    65    1
    31    16    34    1
    32    16    66    1
    33    17    18    1
    34    17    27    1
    35    17    35    1
    36    18    19    1
    37    18    36    1
    38    19    20    1
    39    19    37    1
    40    20    21    1
    41    20    38    1
    42    21    39    1
    43    22    25    1
    44    22    31    1
    45    22    40    1
    46    23    24    1
    47    23    41    1
    48    24    26    1
    49    24    42    1
    50    25    29    1
    51    25    43    1
    52    26    28    1
    53    26    44    1
    54    27    45    1
    55    27    46    1
    56    28    30    1
    57    28    47    1
    58    29    32    1
    59    29    48    1
    60    30    34    1
    61    30    49    1
    62    31    50    1
    63    31    51    1
    64    32    33    1
    65    32    52    1
    66    33    53    1
    67    34    54    1
    68    34    55    1
