@<TRIPOS>MOLECULE
IMPHY000510
 38 42 0 0 0
SMALL
GASTEIGER

@<TRIPOS>ATOM
      1 O        2499.9500 2500.3000    0.0000 O.3     1  UNL1       -0.4474
      2 C        2499.9500 2460.3000    0.0000 C.ar    1  UNL1        0.1842
      3 C        2534.5900 2440.1500    0.0000 C.ar    1  UNL1        0.0291
      4 C        2569.1300 2460.3000    0.0000 C.3     1  UNL1        0.1180
      5 C        2569.1300 2500.3000    0.0000 C.3     1  UNL1        0.1931
      6 O        2534.4900 2520.3500    0.0000 O.3     1  UNL1       -0.2165
      7 C        2603.7700 2520.3500    0.0000 C.ar    1  UNL1        0.0128
      8 C        2603.7700 2560.3500    0.0000 C.ar    1  UNL1        0.0436
      9 C        2638.4100 2580.3000    0.0000 C.ar    1  UNL1        0.2340
     10 O        2638.4100 2620.3000    0.0000 O.3     1  UNL1       -0.2832
     11 C        2673.0500 2560.3500    0.0000 C.ar    1  UNL1        0.2342
     12 C        2673.0500 2520.3500    0.0000 C.ar    1  UNL1        0.0452
     13 C        2638.4100 2500.3000    0.0000 C.ar    1  UNL1        0.0017
     14 O        2707.6900 2580.3000    0.0000 O.3     1  UNL1       -0.2831
     15 N        2603.6700 2440.1500    0.0000 N.3     1  UNL1       -0.2664
     16 C        2638.3100 2460.2000    0.0000 C.3     1  UNL1        0.0899
     17 C        2603.6700 2399.8500    0.0000 C.3     1  UNL1        0.0771
     18 C        2569.1300 2379.7000    0.0000 C.3     1  UNL1        0.0436
     19 C        2534.5900 2399.8500    0.0000 C.ar    1  UNL1       -0.0173
     20 C        2499.9500 2379.7000    0.0000 C.ar    1  UNL1        0.0359
     21 C        2465.4100 2399.8500    0.0000 C.ar    1  UNL1        0.1801
     22 C        2465.4100 2440.1500    0.0000 C.ar    1  UNL1        0.2630
     23 O        2430.7700 2460.2000    0.0000 O.3     1  UNL1       -0.2800
     24 O        2430.7700 2379.9000    0.0000 O.3     1  UNL1       -0.4681
     25 C        2389.4800 2403.7200    0.0000 C.3     1  UNL1        0.2526
     26 C        2465.3100 2520.3500    0.0000 C.ar    1  UNL1        0.1788
     27 C        2465.3100 2560.6500    0.0000 C.ar    1  UNL1        0.1726
     28 O        2499.9500 2580.6900    0.0000 O.3     1  UNL1       -0.4684
     29 C        2534.5900 2560.6500    0.0000 C.3     1  UNL1        0.2526
     30 C        2430.7700 2580.7900    0.0000 C.ar    1  UNL1        0.0356
     31 C        2396.2300 2560.6500    0.0000 C.ar    1  UNL1       -0.0202
     32 C        2396.2300 2520.3500    0.0000 C.ar    1  UNL1       -0.0068
     33 C        2430.7700 2500.2000    0.0000 C.ar    1  UNL1        0.0374
     34 C        2361.6900 2500.2000    0.0000 C.3     1  UNL1        0.0990
     35 N        2327.1500 2520.3500    0.0000 N.3     1  UNL1       -0.2674
     36 C        2327.1500 2560.6500    0.0000 C.3     1  UNL1        0.0771
     37 C        2361.6900 2580.7900    0.0000 C.3     1  UNL1        0.0435
     38 C        2292.3100 2500.3000    0.0000 C.3     1  UNL1        0.0899
@<TRIPOS>BOND
     1     1     2    1
     2     1    26    1
     3     2     3   ar
     4     2    22   ar
     5     3    19   ar
     6     4     3    1
     7     4     5    1
     8     4    15    1
     9     5     6    1
    10     5     7    1
    11     7     8   ar
    12     7    13   ar
    13     8     9   ar
    14     9    10    1
    15     9    11   ar
    16    11    14    1
    17    12    11   ar
    18    13    12   ar
    19    15    16    1
    20    15    17    1
    21    18    17    1
    22    19    18    1
    23    19    20   ar
    24    21    20   ar
    25    21    24    1
    26    22    21   ar
    27    22    23    1
    28    24    25    1
    29    26    27   ar
    30    26    33   ar
    31    27    28    1
    32    27    30   ar
    33    28    29    1
    34    30    31   ar
    35    31    37    1
    36    32    31   ar
    37    32    34    1
    38    33    32   ar
    39    34    35    1
    40    35    36    1
    41    35    38    1
    42    37    36    1
