@<TRIPOS>MOLECULE
IMPHY013823
 45 47 0 0 0
SMALL
GASTEIGER

@<TRIPOS>ATOM
      1 N           3.7320   -2.7500    0.0000 N.3     1  UNL1       -0.3052
      2 N           3.7320    0.2500    0.0000 N.pl3   1  UNL1       -0.3224
      3 C           3.7320   -0.7500    0.0000 C.3     1  UNL1        0.0262
      4 C           4.5981   -1.2500    0.0000 C.3     1  UNL1       -0.0215
      5 C           2.8660   -1.2500    0.0000 C.3     1  UNL1       -0.0215
      6 C           4.5981   -2.2500    0.0000 C.3     1  UNL1        0.0003
      7 C           2.8660   -2.2500    0.0000 C.3     1  UNL1        0.0003
      8 C           2.8660    0.7500    0.0000 C.3     1  UNL1        0.0375
      9 C           4.5981    0.7500    0.0000 C.ar    1  UNL1        0.0302
     10 C           3.7320   -3.7500    0.0000 C.3     1  UNL1       -0.0128
     11 C           2.8660    1.7500    0.0000 C.ar    1  UNL1       -0.0302
     12 C           5.4641    0.2500    0.0000 C.ar    1  UNL1       -0.0406
     13 C           4.5981    1.7500    0.0000 C.ar    1  UNL1       -0.0406
     14 C           3.7320    2.2500    0.0000 C.ar    1  UNL1       -0.0571
     15 C           2.0000    2.2500    0.0000 C.ar    1  UNL1       -0.0571
     16 C           6.3301    0.7500    0.0000 C.ar    1  UNL1       -0.0600
     17 C           5.4641    2.2500    0.0000 C.ar    1  UNL1       -0.0600
     18 C           6.3301    1.7500    0.0000 C.ar    1  UNL1       -0.0616
     19 C           3.7320    3.2500    0.0000 C.ar    1  UNL1       -0.0615
     20 C           2.0000    3.2500    0.0000 C.ar    1  UNL1       -0.0615
     21 C           2.8660    3.7500    0.0000 C.ar    1  UNL1       -0.0617
     22 H           4.2690   -0.4400    0.0000 H       1  UNL1        0.0500
     23 H           5.2087   -1.3577    0.0000 H       1  UNL1        0.0295
     24 H           4.8101   -0.6674    0.0000 H       1  UNL1        0.0295
     25 H           2.6540   -0.6674    0.0000 H       1  UNL1        0.0295
     26 H           2.2554   -1.3577    0.0000 H       1  UNL1        0.0295
     27 H           4.8101   -2.8326    0.0000 H       1  UNL1        0.0427
     28 H           5.2087   -2.1423    0.0000 H       1  UNL1        0.0427
     29 H           2.2554   -2.1423    0.0000 H       1  UNL1        0.0427
     30 H           2.6540   -2.8326    0.0000 H       1  UNL1        0.0427
     31 H           2.2554    0.8577    0.0000 H       1  UNL1        0.0513
     32 H           2.6540    0.1674    0.0000 H       1  UNL1        0.0513
     33 H           3.1120   -3.7500    0.0000 H       1  UNL1        0.0391
     34 H           3.7320   -4.3700    0.0000 H       1  UNL1        0.0391
     35 H           4.3520   -3.7500    0.0000 H       1  UNL1        0.0391
     36 H           5.4641   -0.3700    0.0000 H       1  UNL1        0.0636
     37 H           4.0611    2.0600    0.0000 H       1  UNL1        0.0636
     38 H           4.2690    1.9400    0.0000 H       1  UNL1        0.0621
     39 H           1.4631    1.9400    0.0000 H       1  UNL1        0.0621
     40 H           6.8671    0.4400    0.0000 H       1  UNL1        0.0618
     41 H           5.4641    2.8700    0.0000 H       1  UNL1        0.0618
     42 H           6.8671    2.0600    0.0000 H       1  UNL1        0.0618
     43 H           4.2690    3.5600    0.0000 H       1  UNL1        0.0618
     44 H           1.4631    3.5600    0.0000 H       1  UNL1        0.0618
     45 H           2.8660    4.3700    0.0000 H       1  UNL1        0.0618
@<TRIPOS>BOND
     1     1     6    1
     2     1     7    1
     3     1    10    1
     4     2     3    1
     5     2     8    1
     6     2     9    1
     7     3     4    1
     8     3     5    1
     9     3    22    1
    10     4     6    1
    11     4    23    1
    12     4    24    1
    13     5     7    1
    14     5    25    1
    15     5    26    1
    16     6    27    1
    17     6    28    1
    18     7    29    1
    19     7    30    1
    20     8    11    1
    21     8    31    1
    22     8    32    1
    23     9    12   ar
    24     9    13   ar
    25    10    33    1
    26    10    34    1
    27    10    35    1
    28    11    14   ar
    29    11    15   ar
    30    12    16   ar
    31    12    36    1
    32    13    17   ar
    33    13    37    1
    34    14    19   ar
    35    14    38    1
    36    15    20   ar
    37    15    39    1
    38    16    18   ar
    39    16    40    1
    40    17    18   ar
    41    17    41    1
    42    18    42    1
    43    19    21   ar
    44    19    43    1
    45    20    21   ar
    46    20    44    1
    47    21    45    1
