@<TRIPOS>MOLECULE
IMPHY006603
 50 54 0 0 0
SMALL
GASTEIGER

@<TRIPOS>ATOM
      1 O           5.8425   -2.2552    0.0000 O.3     1  UNL1       -0.3680
      2 O           3.2330   -2.2525    0.0000 O.3     1  UNL1       -0.4555
      3 O           3.3801   -0.7325    0.0000 O.3     1  UNL1       -0.3877
      4 O           7.9787    0.7805    0.0000 O.3     1  UNL1       -0.3883
      5 O           3.6104    0.2836    0.0000 O.2     1  UNL1       -0.2967
      6 O           2.7094   -0.7490    0.0000 O.2     1  UNL1       -0.2504
      7 O           7.9944    2.8287    0.0000 O.3     1  UNL1       -0.3852
      8 C           5.3425   -0.7164    0.0000 C.3     1  UNL1        0.0737
      9 C           6.2085   -0.2164    0.0000 C.3     1  UNL1        0.0123
     10 C           4.5334   -1.3042    0.0000 C.3     1  UNL1        0.1033
     11 C           6.2085    0.7836    0.0000 C.3     1  UNL1        0.0098
     12 C           4.8425   -2.2552    0.0000 C.3     1  UNL1        0.1197
     13 C           4.3660   -0.9000    0.0000 C.3     1  UNL1        0.0992
     14 C           4.0367   -2.8375    0.0000 C.3     1  UNL1        0.1583
     15 C           5.3425    1.2836    0.0000 C.3     1  UNL1       -0.0052
     16 C           6.1515   -1.3042    0.0000 C.3     1  UNL1        0.0621
     17 C           4.4764   -0.2164    0.0000 C.2     1  UNL1        0.1435
     18 C           4.4764    0.7836    0.0000 C.3     1  UNL1        0.0136
     19 C           7.1185    1.2904    0.0000 C.3     1  UNL1        0.0909
     20 C           3.5394   -1.3068    0.0000 C.2     1  UNL1        0.3146
     21 C           7.0745    0.2836    0.0000 C.3     1  UNL1       -0.0562
     22 C           5.1515   -3.2063    0.0000 C.3     1  UNL1       -0.0314
     23 C           5.3264    2.3251    0.0000 C.2     1  UNL1       -0.0700
     24 C           7.1265    2.3320    0.0000 C.3     1  UNL1        0.1000
     25 C           6.2244    2.8529    0.0000 C.2     1  UNL1       -0.0541
     26 C           4.4546    2.8151    0.0000 C.3     1  UNL1       -0.0434
     27 H           6.9446   -0.6414    0.0000 H       1  UNL1        0.0344
     28 H           5.3649   -1.4809    0.0000 H       1  UNL1        0.0454
     29 H           3.9645   -0.4275    0.0000 H       1  UNL1        0.0634
     30 H           3.8943   -3.6754    0.0000 H       1  UNL1        0.0790
     31 H           4.6031    1.7029    0.0000 H       1  UNL1        0.0356
     32 H           6.4615   -0.7673    0.0000 H       1  UNL1        0.0570
     33 H           6.7179   -1.5564    0.0000 H       1  UNL1        0.0570
     34 H           3.8658    0.6759    0.0000 H       1  UNL1        0.0348
     35 H           4.2644    1.3662    0.0000 H       1  UNL1        0.0348
     36 H           7.6584    1.5952    0.0000 H       1  UNL1        0.0628
     37 H           7.3845    0.8205    0.0000 H       1  UNL1        0.0236
     38 H           7.6114   -0.0264    0.0000 H       1  UNL1        0.0236
     39 H           6.7645   -0.2533    0.0000 H       1  UNL1        0.0236
     40 H           5.7411   -3.0147    0.0000 H       1  UNL1        0.0259
     41 H           5.3431   -3.7960    0.0000 H       1  UNL1        0.0259
     42 H           4.5618   -3.3979    0.0000 H       1  UNL1        0.0259
     43 H           7.1277    2.9520    0.0000 H       1  UNL1        0.0664
     44 H           3.1644   -0.1512    0.0000 H       1  UNL1        0.2100
     45 H           6.2220    3.4728    0.0000 H       1  UNL1        0.0598
     46 H           8.5192    1.0842    0.0000 H       1  UNL1        0.2099
     47 H           4.1509    2.2746    0.0000 H       1  UNL1        0.0274
     48 H           3.9142    3.1188    0.0000 H       1  UNL1        0.0274
     49 H           4.7584    3.3555    0.0000 H       1  UNL1        0.0274
     50 H           7.9968    3.4487    0.0000 H       1  UNL1        0.2103
@<TRIPOS>BOND
     1     1    12    1
     2     1    16    1
     3     2    14    1
     4     2    20    1
     5    13     3    1
     6     3    44    1
     7    19     4    1
     8     4    46    1
     9     5    17    2
    10     6    20    2
    11    24     7    1
    12     7    50    1
    13     8     9    1
    14     8    10    1
    15     8    16    1
    16     8    17    1
    17     9    11    1
    18     9    13    1
    19     9    27    1
    20    10    12    1
    21    10    20    1
    22    10    28    1
    23    11    15    1
    24    11    19    1
    25    11    21    1
    26    12    14    1
    27    12    22    1
    28    13    14    1
    29    13    29    1
    30    14    30    1
    31    15    18    1
    32    15    23    1
    33    15    31    1
    34    16    32    1
    35    16    33    1
    36    17    18    1
    37    18    34    1
    38    18    35    1
    39    19    24    1
    40    19    36    1
    41    21    37    1
    42    21    38    1
    43    21    39    1
    44    22    40    1
    45    22    41    1
    46    22    42    1
    47    23    25    2
    48    23    26    1
    49    24    25    1
    50    24    43    1
    51    25    45    1
    52    26    47    1
    53    26    48    1
    54    26    49    1
