@<TRIPOS>MOLECULE
IMPHY000182
 81 83 0 0 0
SMALL
GASTEIGER

@<TRIPOS>ATOM
      1 O           2.8660    0.3100    0.0000 O.3     1  UNL1       -0.4862
      2 O           4.5981    2.3100    0.0000 O.2     1  UNL1       -0.2741
      3 O           3.7226   -0.2067    0.0000 O.2     1  UNL1       -0.2736
      4 O           3.7118   -3.1532    0.0000 O.2     1  UNL1       -0.2734
      5 N           5.4641    0.8100    0.0000 N.am    1  UNL1       -0.2997
      6 N           7.1962    1.8100    0.0000 N.3     1  UNL1       -0.2974
      7 N           5.4641   -1.1900    0.0000 N.am    1  UNL1       -0.3020
      8 N           4.5981   -3.6900    0.0000 N.am    1  UNL1       -0.2904
      9 C           6.3301    2.3100    0.0000 C.3     1  UNL1        0.0893
     10 C           3.7320    0.8100    0.0000 C.3     1  UNL1        0.1292
     11 C           4.5981    0.3100    0.0000 C.3     1  UNL1        0.1368
     12 C           6.3301    3.3100    0.0000 C.3     1  UNL1       -0.0200
     13 C           3.0893    1.5760    0.0000 C.3     1  UNL1       -0.0073
     14 C           5.4641    1.8100    0.0000 C.2     1  UNL1        0.2312
     15 C           7.1962    3.8100    0.0000 C.3     1  UNL1       -0.0514
     16 C           4.5981   -0.6900    0.0000 C.2     1  UNL1        0.2376
     17 C           5.4641    3.8100    0.0000 C.3     1  UNL1       -0.0605
     18 C           2.1044    1.4024    0.0000 C.3     1  UNL1       -0.0592
     19 C           3.4313    2.5157    0.0000 C.3     1  UNL1       -0.0592
     20 C           5.4641   -2.1900    0.0000 C.3     1  UNL1        0.1037
     21 C           7.1962    4.8100    0.0000 C.3     1  UNL1       -0.0650
     22 C           8.0622    2.3100    0.0000 C.3     1  UNL1       -0.0123
     23 C           7.1962    0.8100    0.0000 C.3     1  UNL1       -0.0123
     24 C           6.3301   -2.6900    0.0000 C.3     1  UNL1       -0.0006
     25 C           2.8660   -0.6900    0.0000 C.ar    1  UNL1        0.1211
     26 C           4.5981   -2.6900    0.0000 C.2     1  UNL1        0.2374
     27 C           7.1962   -2.1900    0.0000 C.ar    1  UNL1       -0.0451
     28 C           3.7320   -1.1900    0.0000 C.ar    1  UNL1       -0.0194
     29 C           2.0000   -1.1900    0.0000 C.ar    1  UNL1       -0.0194
     30 C           2.8660   -2.6900    0.0000 C.ar    1  UNL1       -0.0236
     31 C           3.7320   -2.1900    0.0000 C.ar    1  UNL1       -0.0511
     32 C           2.0000   -2.1900    0.0000 C.ar    1  UNL1       -0.0511
     33 C           8.0622   -2.6900    0.0000 C.ar    1  UNL1       -0.0585
     34 C           7.1962   -1.1900    0.0000 C.ar    1  UNL1       -0.0585
     35 C           3.7320   -4.1900    0.0000 C.2     1  UNL1       -0.0031
     36 C           2.8660   -3.6900    0.0000 C.2     1  UNL1       -0.0407
     37 C           8.9282   -2.1900    0.0000 C.ar    1  UNL1       -0.0615
     38 C           8.0622   -0.6900    0.0000 C.ar    1  UNL1       -0.0615
     39 C           8.9282   -1.1900    0.0000 C.ar    1  UNL1       -0.0617
     40 H           6.3301    1.6900    0.0000 H       1  UNL1        0.0561
     41 H           3.1215    0.9177    0.0000 H       1  UNL1        0.0759
     42 H           5.1350   -0.0000    0.0000 H       1  UNL1        0.0632
     43 H           5.7932    3.0000    0.0000 H       1  UNL1        0.0318
     44 H           3.6998    1.6837    0.0000 H       1  UNL1        0.0332
     45 H           6.0010    0.5000    0.0000 H       1  UNL1        0.1496
     46 H           7.4082    3.2274    0.0000 H       1  UNL1        0.0266
     47 H           7.8067    3.9177    0.0000 H       1  UNL1        0.0266
     48 H           5.7741    4.3469    0.0000 H       1  UNL1        0.0233
     49 H           4.9272    4.1200    0.0000 H       1  UNL1        0.0233
     50 H           5.1541    3.2731    0.0000 H       1  UNL1        0.0233
     51 H           1.9968    2.0130    0.0000 H       1  UNL1        0.0233
     52 H           1.4939    1.2947    0.0000 H       1  UNL1        0.0233
     53 H           2.2121    0.7918    0.0000 H       1  UNL1        0.0233
     54 H           4.0139    2.3037    0.0000 H       1  UNL1        0.0233
     55 H           3.6433    3.0983    0.0000 H       1  UNL1        0.0233
     56 H           2.8487    2.7278    0.0000 H       1  UNL1        0.0233
     57 H           6.0010   -0.8800    0.0000 H       1  UNL1        0.1495
     58 H           6.0010   -1.8800    0.0000 H       1  UNL1        0.0598
     59 H           7.8162    4.8100    0.0000 H       1  UNL1        0.0230
     60 H           7.1962    5.4300    0.0000 H       1  UNL1        0.0230
     61 H           6.5762    4.8100    0.0000 H       1  UNL1        0.0230
     62 H           6.5762    0.8100    0.0000 H       1  UNL1        0.0391
     63 H           8.3722    1.7731    0.0000 H       1  UNL1        0.0391
     64 H           8.5991    2.6200    0.0000 H       1  UNL1        0.0391
     65 H           7.7522    2.8469    0.0000 H       1  UNL1        0.0391
     66 H           7.1962    0.1900    0.0000 H       1  UNL1        0.0391
     67 H           7.8162    0.8100    0.0000 H       1  UNL1        0.0391
     68 H           5.9316   -3.1650    0.0000 H       1  UNL1        0.0336
     69 H           6.7287   -3.1649    0.0000 H       1  UNL1        0.0336
     70 H           4.2690   -0.8800    0.0000 H       1  UNL1        0.0654
     71 H           1.4631   -0.8800    0.0000 H       1  UNL1        0.0654
     72 H           5.1350   -4.0000    0.0000 H       1  UNL1        0.1543
     73 H           4.2690   -2.5000    0.0000 H       1  UNL1        0.0625
     74 H           1.4631   -2.5000    0.0000 H       1  UNL1        0.0625
     75 H           8.0622   -3.3100    0.0000 H       1  UNL1        0.0620
     76 H           6.6592   -0.8800    0.0000 H       1  UNL1        0.0620
     77 H           3.7320   -4.8100    0.0000 H       1  UNL1        0.0782
     78 H           2.3291   -4.0000    0.0000 H       1  UNL1        0.0636
     79 H           9.4651   -2.5000    0.0000 H       1  UNL1        0.0618
     80 H           8.0622   -0.0700    0.0000 H       1  UNL1        0.0618
     81 H           9.4651   -0.8800    0.0000 H       1  UNL1        0.0618
@<TRIPOS>BOND
     1     1    10    1
     2     1    25    1
     3     2    14    2
     4     3    16    2
     5     4    26    2
     6    11     5    1
     7     5    14   am
     8     5    45    1
     9     9     6    1
    10     6    22    1
    11     6    23    1
    12     7    16   am
    13     7    20    1
    14     7    57    1
    15     8    26   am
    16     8    35    1
    17     8    72    1
    18     9    12    1
    19     9    14    1
    20     9    40    1
    21    10    11    1
    22    10    13    1
    23    10    41    1
    24    11    16    1
    25    11    42    1
    26    12    15    1
    27    12    17    1
    28    12    43    1
    29    13    18    1
    30    13    19    1
    31    13    44    1
    32    15    21    1
    33    15    46    1
    34    15    47    1
    35    17    48    1
    36    17    49    1
    37    17    50    1
    38    18    51    1
    39    18    52    1
    40    18    53    1
    41    19    54    1
    42    19    55    1
    43    19    56    1
    44    20    24    1
    45    20    26    1
    46    20    58    1
    47    21    59    1
    48    21    60    1
    49    21    61    1
    50    22    63    1
    51    22    64    1
    52    22    65    1
    53    23    62    1
    54    23    66    1
    55    23    67    1
    56    24    27    1
    57    24    68    1
    58    24    69    1
    59    25    28   ar
    60    25    29   ar
    61    27    33   ar
    62    27    34   ar
    63    28    31   ar
    64    28    70    1
    65    29    32   ar
    66    29    71    1
    67    30    31   ar
    68    30    32   ar
    69    30    36    1
    70    31    73    1
    71    32    74    1
    72    33    37   ar
    73    33    75    1
    74    34    38   ar
    75    34    76    1
    76    35    36    2
    77    35    77    1
    78    36    78    1
    79    37    39   ar
    80    37    79    1
    81    38    39   ar
    82    38    80    1
    83    39    81    1
