@<TRIPOS>MOLECULE
IMPHY005405
 35 38 0 0 0
SMALL
GASTEIGER

@<TRIPOS>ATOM
      1 O          10.4728    0.0550    0.0000 O.3     1  UNL1       -0.4489
      2 O           6.9006   -1.7844    0.0000 O.2     1  UNL1       -0.4618
      3 O          10.4728   -1.5545    0.0000 O.3     1  UNL1       -0.4523
      4 O           8.6605    1.2502    0.0000 O.3     1  UNL1       -0.4905
      5 O           6.9121    1.2848    0.0000 O.2     1  UNL1       -0.2863
      6 O           2.5381    1.7844    0.0000 O.3     1  UNL1       -0.5068
      7 C           7.7945   -0.2497    0.0000 C.ar    1  UNL1        0.1099
      8 C           7.7945   -1.2498    0.0000 C.ar    1  UNL1        0.1457
      9 C           8.6605    0.2503    0.0000 C.ar    1  UNL1        0.1797
     10 C           9.5266   -0.2497    0.0000 C.ar    1  UNL1        0.2085
     11 C           9.5266   -1.2498    0.0000 C.ar    1  UNL1        0.1734
     12 C           6.9006    0.2849    0.0000 C.ar    1  UNL1        0.2038
     13 C           8.6605   -1.7498    0.0000 C.ar    1  UNL1        0.0271
     14 C           5.9945   -0.2289    0.0000 C.ar    1  UNL1        0.0644
     15 C           5.1304    0.2744    0.0000 C.ar    1  UNL1       -0.0110
     16 C          11.0564   -0.7497    0.0000 C.3     1  UNL1        0.2334
     17 C           5.9945   -1.2706    0.0000 C.ar    1  UNL1        0.1038
     18 C           5.1343    1.2744    0.0000 C.ar    1  UNL1       -0.0504
     19 C           4.2625   -0.2223    0.0000 C.ar    1  UNL1       -0.0504
     20 C           4.2702    1.7777    0.0000 C.ar    1  UNL1       -0.0196
     21 C           3.3984    0.2811    0.0000 C.ar    1  UNL1       -0.0196
     22 C           9.5266    1.7502    0.0000 C.3     1  UNL1        0.0790
     23 C           3.4022    1.2811    0.0000 C.ar    1  UNL1        0.1169
     24 H           8.6605   -2.3697    0.0000 H       1  UNL1        0.0692
     25 H          11.5173   -1.1645    0.0000 H       1  UNL1        0.1166
     26 H          11.5173   -0.3350    0.0000 H       1  UNL1        0.1166
     27 H           5.4588   -1.5826    0.0000 H       1  UNL1        0.1037
     28 H           5.6724    1.5823    0.0000 H       1  UNL1        0.0625
     29 H           4.2601   -0.8422    0.0000 H       1  UNL1        0.0625
     30 H           4.2726    2.3977    0.0000 H       1  UNL1        0.0654
     31 H           2.8602   -0.0268    0.0000 H       1  UNL1        0.0654
     32 H           9.8366    1.2133    0.0000 H       1  UNL1        0.0660
     33 H          10.0635    2.0602    0.0000 H       1  UNL1        0.0660
     34 H           9.2166    2.2872    0.0000 H       1  UNL1        0.0660
     35 H           2.0000    1.4765    0.0000 H       1  UNL1        0.2921
@<TRIPOS>BOND
     1     1    10    1
     2     1    16    1
     3     2     8   ar
     4     2    17   ar
     5     3    11    1
     6     3    16    1
     7     4     9    1
     8     4    22    1
     9     5    12    2
    10     6    23    1
    11     6    35    1
    12     7     8   ar
    13     7     9   ar
    14     7    12   ar
    15     8    13   ar
    16     9    10   ar
    17    10    11   ar
    18    11    13   ar
    19    12    14   ar
    20    13    24    1
    21    14    15    1
    22    14    17   ar
    23    15    18   ar
    24    15    19   ar
    25    16    25    1
    26    16    26    1
    27    17    27    1
    28    18    20   ar
    29    18    28    1
    30    19    21   ar
    31    19    29    1
    32    20    23   ar
    33    20    30    1
    34    21    23   ar
    35    21    31    1
    36    22    32    1
    37    22    33    1
    38    22    34    1
