@<TRIPOS>MOLECULE
IMPHY017783
 24 25 0 0 0
SMALL
GASTEIGER

@<TRIPOS>ATOM
      1 C           3.5388    0.3800    0.0000 C.3     1  UNL1        0.0166
      2 C           4.4054   -0.1200    0.0000 C.3     1  UNL1       -0.0173
      3 C           3.5388   -0.6200    0.0000 C.2     1  UNL1       -0.0551
      4 C           3.5388    1.3800    0.0000 C.3     1  UNL1       -0.0336
      5 C           2.5878    0.6891    0.0000 C.2     1  UNL1       -0.0731
      6 C           2.5878   -0.9290    0.0000 C.2     1  UNL1       -0.0506
      7 C           2.0000   -0.1200    0.0000 C.2     1  UNL1       -0.0619
      8 C           4.4049    1.8800    0.0000 C.3     1  UNL1       -0.0616
      9 C           2.6728    1.8800    0.0000 C.3     1  UNL1       -0.0616
     10 C           2.2788   -1.8800    0.0000 C.3     1  UNL1       -0.0397
     11 H           4.8039   -0.5949    0.0000 H       1  UNL1        0.0322
     12 H           4.8039    0.3550    0.0000 H       1  UNL1        0.0322
     13 H           3.5388    2.0000    0.0000 H       1  UNL1        0.0307
     14 H           2.3962    1.2787    0.0000 H       1  UNL1        0.0581
     15 H           1.3800   -0.1200    0.0000 H       1  UNL1        0.0617
     16 H           4.7149    1.3431    0.0000 H       1  UNL1        0.0233
     17 H           4.9418    2.1900    0.0000 H       1  UNL1        0.0233
     18 H           4.0949    2.4170    0.0000 H       1  UNL1        0.0233
     19 H           2.9828    2.4170    0.0000 H       1  UNL1        0.0233
     20 H           2.1359    2.1900    0.0000 H       1  UNL1        0.0233
     21 H           2.3628    1.3431    0.0000 H       1  UNL1        0.0233
     22 H           1.6891   -1.6884    0.0000 H       1  UNL1        0.0278
     23 H           2.0872   -2.4697    0.0000 H       1  UNL1        0.0278
     24 H           2.8684   -2.0716    0.0000 H       1  UNL1        0.0278
@<TRIPOS>BOND
     1     1     2    1
     2     1     3    1
     3     1     4    1
     4     1     5    1
     5     2     3    1
     6     2    11    1
     7     2    12    1
     8     3     6    2
     9     4     8    1
    10     4     9    1
    11     4    13    1
    12     5     7    2
    13     5    14    1
    14     6     7    1
    15     6    10    1
    16     7    15    1
    17     8    16    1
    18     8    17    1
    19     8    18    1
    20     9    19    1
    21     9    20    1
    22     9    21    1
    23    10    22    1
    24    10    23    1
    25    10    24    1
