@<TRIPOS>MOLECULE
IMPHY008185
 46 50 0 0 0
SMALL
GASTEIGER

@<TRIPOS>ATOM
      1 O           6.0718    0.2266    0.0000 O.3     1  UNL1       -0.3742
      2 O           5.7565   -1.0166    0.0000 O.2     1  UNL1       -0.2884
      3 O           3.8212   -2.3768    0.0000 O.3     1  UNL1       -0.4519
      4 O           2.1551   -2.3413    0.0000 O.3     1  UNL1       -0.4526
      5 O           9.0083    1.9874    0.0000 O.3     1  UNL1       -0.4914
      6 O           8.5525   -0.0095    0.0000 O.3     1  UNL1       -0.5033
      7 N           4.0474    2.0692    0.0000 N.3     1  UNL1       -0.2950
      8 C           4.2699    1.0943    0.0000 C.3     1  UNL1        0.0767
      9 C           5.1708    0.6604    0.0000 C.3     1  UNL1        0.1729
     10 C           3.5848    0.3740    0.0000 C.ar    1  UNL1       -0.0124
     11 C           6.0718    1.0943    0.0000 C.ar    1  UNL1        0.0002
     12 C           5.0349   -0.3243    0.0000 C.2     1  UNL1        0.2047
     13 C           4.0566   -0.5010    0.0000 C.ar    1  UNL1        0.0709
     14 C           4.6708    2.8511    0.0000 C.3     1  UNL1        0.0033
     15 C           6.2943    2.0692    0.0000 C.ar    1  UNL1       -0.0361
     16 C           5.6708    2.8511    0.0000 C.3     1  UNL1       -0.0144
     17 C           3.5267   -1.3906    0.0000 C.ar    1  UNL1        0.1771
     18 C           2.5503    0.4201    0.0000 C.ar    1  UNL1       -0.0526
     19 C           3.0724    2.2918    0.0000 C.3     1  UNL1       -0.0121
     20 C           6.8244    0.3741    0.0000 C.ar    1  UNL1       -0.0099
     21 C           7.2848    2.3916    0.0000 C.ar    1  UNL1       -0.0127
     22 C           2.4915   -1.3684    0.0000 C.ar    1  UNL1        0.1670
     23 C           2.0000   -0.4570    0.0000 C.ar    1  UNL1       -0.0158
     24 C           7.8221    0.6735    0.0000 C.ar    1  UNL1        0.1588
     25 C           8.0538    1.6890    0.0000 C.ar    1  UNL1        0.1615
     26 C           2.9753   -2.9632    0.0000 C.3     1  UNL1        0.2333
     27 C           9.2270    2.9632    0.0000 C.3     1  UNL1        0.0790
     28 H           4.7546    1.4809    0.0000 H       1  UNL1        0.0549
     29 H           4.8088    3.4555    0.0000 H       1  UNL1        0.0430
     30 H           4.1123    3.1201    0.0000 H       1  UNL1        0.0430
     31 H           6.2295    3.1201    0.0000 H       1  UNL1        0.0326
     32 H           5.5329    3.4555    0.0000 H       1  UNL1        0.0326
     33 H           2.2624    0.9691    0.0000 H       1  UNL1        0.0622
     34 H           3.2104    2.8962    0.0000 H       1  UNL1        0.0391
     35 H           2.4680    2.4297    0.0000 H       1  UNL1        0.0391
     36 H           2.9345    1.6873    0.0000 H       1  UNL1        0.0391
     37 H           6.1182   -0.3917    0.0000 H       1  UNL1        0.2113
     38 H           6.6794   -0.2287    0.0000 H       1  UNL1        0.0659
     39 H           7.4158    2.9976    0.0000 H       1  UNL1        0.0658
     40 H           1.3803   -0.4366    0.0000 H       1  UNL1        0.0655
     41 H           2.5508   -3.4151    0.0000 H       1  UNL1        0.1166
     42 H           3.3801   -3.4328    0.0000 H       1  UNL1        0.1166
     43 H           9.1456    0.1710    0.0000 H       1  UNL1        0.2923
     44 H           9.8320    2.8276    0.0000 H       1  UNL1        0.0660
     45 H           9.3627    3.5682    0.0000 H       1  UNL1        0.0660
     46 H           8.6221    3.0988    0.0000 H       1  UNL1        0.0660
@<TRIPOS>BOND
     1     1     9    1
     2     1    37    1
     3     2    12    2
     4     3    17    1
     5     3    26    1
     6     4    22    1
     7     4    26    1
     8     5    25    1
     9     5    27    1
    10     6    24    1
    11     6    43    1
    12     7     8    1
    13     7    14    1
    14     7    19    1
    15     8     9    1
    16     8    10    1
    17     8    28    1
    18     9    11    1
    19     9    12    1
    20    10    13   ar
    21    10    18   ar
    22    11    15   ar
    23    11    20   ar
    24    12    13    1
    25    13    17   ar
    26    14    16    1
    27    14    29    1
    28    14    30    1
    29    15    16    1
    30    15    21   ar
    31    16    31    1
    32    16    32    1
    33    17    22   ar
    34    18    23   ar
    35    18    33    1
    36    19    34    1
    37    19    35    1
    38    19    36    1
    39    20    24   ar
    40    20    38    1
    41    21    25   ar
    42    21    39    1
    43    22    23   ar
    44    23    40    1
    45    24    25   ar
    46    26    41    1
    47    26    42    1
    48    27    44    1
    49    27    45    1
    50    27    46    1
