@<TRIPOS>MOLECULE
IMPHY007380
 51 53 0 0 0
SMALL
GASTEIGER

@<TRIPOS>ATOM
      1 CL          6.0682   -2.7500    0.0000 Cl      1  UNL1        0.0000
      2 O           8.6663    1.7500    0.0000 O.3     2  UNL2       -0.3369
      3 O           7.8003    0.2500    0.0000 O.3     2  UNL2       -0.4515
      4 O           6.0682    3.2500    0.0000 O.3     2  UNL2       -0.3864
      5 O           6.0682    1.2500    0.0000 O.3     2  UNL2       -0.3829
      6 O           7.8003    4.2500    0.0000 O.3     2  UNL2       -0.3869
      7 O           6.0682   -1.7500    0.0000 O.2     2  UNL2       -0.1997
      8 O           4.3198    1.2846    0.0000 O.3     2  UNL2       -0.5057
      9 O           2.5381   -1.7742    0.0000 O.3     2  UNL2       -0.5063
     10 O          10.3984   -1.2500    0.0000 O.3     2  UNL2       -0.5032
     11 O           8.6663   -4.2500    0.0000 O.3     2  UNL2       -0.5032
     12 O          10.3984   -3.2500    0.0000 O.3     2  UNL2       -0.5009
     13 C           6.9343    2.7500    0.0000 C.3     2  UNL2        0.1148
     14 C           6.9343    1.7500    0.0000 C.3     2  UNL2        0.1454
     15 C           7.8003    3.2500    0.0000 C.3     2  UNL2        0.1070
     16 C           7.8003    1.2500    0.0000 C.3     2  UNL2        0.2309
     17 C           8.6663    2.7500    0.0000 C.3     2  UNL2        0.0802
     18 C           6.9343   -0.2500    0.0000 C.ar    2  UNL2        0.2288
     19 C           6.9343   -1.2500    0.0000 C.ar    2  UNL2        0.4047
     20 C           6.0682    0.2500    0.0000 C.ar    2  UNL2        0.0093
     21 C           5.2022   -0.2500    0.0000 C.ar    2  UNL2        0.1241
     22 C           5.2022   -1.2500    0.0000 C.ar    2  UNL2        0.3708
     23 C           7.8003   -1.7500    0.0000 C.ar    2  UNL2        0.0899
     24 C           4.3083    0.2847    0.0000 C.ar    2  UNL2        0.1366
     25 C           4.3083   -1.7847    0.0000 C.ar    2  UNL2        0.0847
     26 C           7.8003   -2.7500    0.0000 C.ar    2  UNL2       -0.0000
     27 C           8.6663   -1.2500    0.0000 C.ar    2  UNL2       -0.0000
     28 C           3.4022   -0.2292    0.0000 C.ar    2  UNL2        0.0225
     29 C           3.4022   -1.2708    0.0000 C.ar    2  UNL2        0.1293
     30 C           9.5323   -1.7500    0.0000 C.ar    2  UNL2        0.1628
     31 C           8.6663   -3.2500    0.0000 C.ar    2  UNL2        0.1628
     32 C           9.5323   -2.7500    0.0000 C.ar    2  UNL2        0.2006
     33 H           6.9343    3.3700    0.0000 H       2  UNL2        0.0648
     34 H           6.9343    1.1300    0.0000 H       2  UNL2        0.0683
     35 H           8.3372    3.5600    0.0000 H       2  UNL2        0.0643
     36 H           8.3372    0.9400    0.0000 H       2  UNL2        0.1084
     37 H           9.2769    2.6423    0.0000 H       2  UNL2        0.0588
     38 H           8.8784    3.3326    0.0000 H       2  UNL2        0.0588
     39 H           6.0682    3.8700    0.0000 H       2  UNL2        0.2100
     40 H           5.5313    1.5600    0.0000 H       2  UNL2        0.2102
     41 H           8.3372    4.5600    0.0000 H       2  UNL2        0.2100
     42 H           6.0682    0.8700    0.0000 H       2  UNL2        0.0667
     43 H           4.3154   -2.4046    0.0000 H       2  UNL2        0.0749
     44 H           7.2634   -3.0600    0.0000 H       2  UNL2        0.0664
     45 H           8.6663   -0.6300    0.0000 H       2  UNL2        0.0664
     46 H           2.8665    0.0829    0.0000 H       2  UNL2        0.0691
     47 H           3.7865    1.6008    0.0000 H       2  UNL2        0.2922
     48 H           2.0000   -1.4662    0.0000 H       2  UNL2        0.2921
     49 H          10.9353   -1.5600    0.0000 H       2  UNL2        0.2923
     50 H           8.1294   -4.5600    0.0000 H       2  UNL2        0.2923
     51 H          10.3984   -3.8700    0.0000 H       2  UNL2        0.2924
@<TRIPOS>UNITY_ATOM_ATTR
1 1
charge -1
7 1
charge 1
@<TRIPOS>BOND
     1     2    16    1
     2     2    17    1
     3    16     3    1
     4     3    18    1
     5    13     4    1
     6     4    39    1
     7    14     5    1
     8     5    40    1
     9    15     6    1
    10     6    41    1
    11     7    19   ar
    12     7    22   ar
    13     8    24    1
    14     8    47    1
    15     9    29    1
    16     9    48    1
    17    10    30    1
    18    10    49    1
    19    11    31    1
    20    11    50    1
    21    12    32    1
    22    12    51    1
    23    13    14    1
    24    13    15    1
    25    13    33    1
    26    14    16    1
    27    14    34    1
    28    15    17    1
    29    15    35    1
    30    16    36    1
    31    17    37    1
    32    17    38    1
    33    18    19   ar
    34    18    20   ar
    35    19    23    1
    36    20    21   ar
    37    20    42    1
    38    21    22   ar
    39    21    24   ar
    40    22    25   ar
    41    23    26   ar
    42    23    27   ar
    43    24    28   ar
    44    25    29   ar
    45    25    43    1
    46    26    31   ar
    47    26    44    1
    48    27    30   ar
    49    27    45    1
    50    28    29   ar
    51    28    46    1
    52    30    32   ar
    53    31    32   ar
