@<TRIPOS>MOLECULE
IMPHY013842
 39 41 0 0 0
SMALL
GASTEIGER

@<TRIPOS>ATOM
      1 O           3.7230   -0.4117    0.0000 O.3     1  UNL1       -0.4597
      2 O           7.2806    0.5298    0.0000 O.3     1  UNL1       -0.3832
      3 O           4.8930   -2.0150    0.0000 O.2     1  UNL1       -0.2919
      4 O           2.0000    0.0205    0.0000 O.2     1  UNL1       -0.2505
      5 C           5.4786   -0.3379    0.0000 C.3     1  UNL1        0.0995
      6 C           4.5777    0.0960    0.0000 C.3     1  UNL1        0.1219
      7 C           6.3796    0.0960    0.0000 C.3     1  UNL1        0.1028
      8 C           4.3551    1.0709    0.0000 C.3     1  UNL1        0.0099
      9 C           6.6021    1.0709    0.0000 C.3     1  UNL1       -0.0103
     10 C           4.9786    1.8527    0.0000 C.3     1  UNL1       -0.0457
     11 C           5.9786    1.8527    0.0000 C.3     1  UNL1       -0.0471
     12 C           3.3648    1.1574    0.0000 C.3     1  UNL1        0.0598
     13 C           5.6146   -1.3227    0.0000 C.2     1  UNL1        0.1683
     14 C           4.5777   -0.7718    0.0000 C.3     1  UNL1       -0.0460
     15 C           7.0647   -0.6243    0.0000 C.2     1  UNL1       -0.0482
     16 C           2.9749    0.2430    0.0000 C.2     1  UNL1        0.3106
     17 C           6.5929   -1.4993    0.0000 C.2     1  UNL1       -0.0196
     18 C           7.5770    1.2934    0.0000 C.3     1  UNL1       -0.0595
     19 C           2.8504    2.0150    0.0000 C.3     1  UNL1       -0.0519
     20 H           5.2422    0.6259    0.0000 H       1  UNL1        0.0748
     21 H           4.0200    1.8520    0.0000 H       1  UNL1        0.0345
     22 H           6.8069    1.6561    0.0000 H       1  UNL1        0.0329
     23 H           5.1166    2.4572    0.0000 H       1  UNL1        0.0269
     24 H           4.4200    2.1217    0.0000 H       1  UNL1        0.0269
     25 H           6.5372    2.1217    0.0000 H       1  UNL1        0.0269
     26 H           5.8407    2.4572    0.0000 H       1  UNL1        0.0269
     27 H           3.6936    1.6831    0.0000 H       1  UNL1        0.0415
     28 H           4.3086   -0.2132    0.0000 H       1  UNL1        0.0241
     29 H           4.0191   -1.0408    0.0000 H       1  UNL1        0.0241
     30 H           4.8467   -1.3304    0.0000 H       1  UNL1        0.0241
     31 H           7.6792   -0.5422    0.0000 H       1  UNL1        0.0602
     32 H           6.8619   -2.0579    0.0000 H       1  UNL1        0.0650
     33 H           7.7150    0.6889    0.0000 H       1  UNL1        0.0233
     34 H           8.1815    1.4314    0.0000 H       1  UNL1        0.0233
     35 H           7.4391    1.8979    0.0000 H       1  UNL1        0.0233
     36 H           7.7928    0.1806    0.0000 H       1  UNL1        0.2106
     37 H           3.3821    2.3339    0.0000 H       1  UNL1        0.0238
     38 H           2.5315    2.5467    0.0000 H       1  UNL1        0.0238
     39 H           2.3188    1.6961    0.0000 H       1  UNL1        0.0238
@<TRIPOS>BOND
     1     1     6    1
     2     1    16    1
     3     7     2    1
     4     2    36    1
     5     3    13    2
     6     4    16    2
     7     5     6    1
     8     5     7    1
     9     5    13    1
    10     5    14    1
    11     6     8    1
    12     6    20    1
    13     7     9    1
    14     7    15    1
    15     8    10    1
    16     8    12    1
    17     8    21    1
    18     9    11    1
    19     9    18    1
    20     9    22    1
    21    10    11    1
    22    10    23    1
    23    10    24    1
    24    11    25    1
    25    11    26    1
    26    12    16    1
    27    12    19    1
    28    12    27    1
    29    13    17    1
    30    14    28    1
    31    14    29    1
    32    14    30    1
    33    15    17    2
    34    15    31    1
    35    17    32    1
    36    18    33    1
    37    18    34    1
    38    18    35    1
    39    19    37    1
    40    19    38    1
    41    19    39    1
