@<TRIPOS>MOLECULE
IMPHY017793
 30 30 0 0 0
SMALL
GASTEIGER

@<TRIPOS>ATOM
      1 O           2.0000    0.6019    0.0000 O.2     1  UNL1       -0.2921
      2 C           3.2601   -0.6581    0.0000 C.3     1  UNL1        0.0252
      3 C           4.2601   -0.6581    0.0000 C.3     1  UNL1       -0.0212
      4 C           4.5691    0.2929    0.0000 C.2     1  UNL1       -0.0627
      5 C           3.7601    0.8807    0.0000 C.2     1  UNL1       -0.0057
      6 C           2.9511    0.2929    0.0000 C.2     1  UNL1        0.1625
      7 C           2.6723   -1.4672    0.0000 C.3     1  UNL1       -0.0457
      8 C           5.5202    0.6019    0.0000 C.3     1  UNL1       -0.0339
      9 C           3.7601    1.8807    0.0000 C.3     1  UNL1       -0.0273
     10 C           3.0790   -2.3807    0.0000 C.3     1  UNL1       -0.0646
     11 C           6.2633   -0.0672    0.0000 C.3     1  UNL1       -0.0615
     12 C           4.6261    2.3807    0.0000 C.3     1  UNL1       -0.0612
     13 H           2.6477   -0.5612    0.0000 H       1  UNL1        0.0384
     14 H           4.1953   -1.2747    0.0000 H       1  UNL1        0.0317
     15 H           4.8665   -0.7870    0.0000 H       1  UNL1        0.0317
     16 H           2.2416   -1.0212    0.0000 H       1  UNL1        0.0269
     17 H           2.1583   -1.8139    0.0000 H       1  UNL1        0.0269
     18 H           6.0087    0.9836    0.0000 H       1  UNL1        0.0308
     19 H           5.2291    1.1494    0.0000 H       1  UNL1        0.0308
     20 H           3.5480    2.4633    0.0000 H       1  UNL1        0.0312
     21 H           3.1495    1.7730    0.0000 H       1  UNL1        0.0312
     22 H           2.5126   -2.6329    0.0000 H       1  UNL1        0.0230
     23 H           3.3312   -2.9471    0.0000 H       1  UNL1        0.0230
     24 H           3.6454   -2.1285    0.0000 H       1  UNL1        0.0230
     25 H           5.8484   -0.5279    0.0000 H       1  UNL1        0.0233
     26 H           6.7240   -0.4821    0.0000 H       1  UNL1        0.0233
     27 H           6.6782    0.3936    0.0000 H       1  UNL1        0.0233
     28 H           4.9361    1.8438    0.0000 H       1  UNL1        0.0233
     29 H           5.1630    2.6907    0.0000 H       1  UNL1        0.0233
     30 H           4.3161    2.9176    0.0000 H       1  UNL1        0.0233
@<TRIPOS>BOND
     1     1     6    2
     2     2     3    1
     3     2     6    1
     4     2     7    1
     5     2    13    1
     6     3     4    1
     7     3    14    1
     8     3    15    1
     9     4     5    2
    10     4     8    1
    11     5     6    1
    12     5     9    1
    13     7    10    1
    14     7    16    1
    15     7    17    1
    16     8    11    1
    17     8    18    1
    18     8    19    1
    19     9    12    1
    20     9    20    1
    21     9    21    1
    22    10    22    1
    23    10    23    1
    24    10    24    1
    25    11    25    1
    26    11    26    1
    27    11    27    1
    28    12    28    1
    29    12    29    1
    30    12    30    1
