@<TRIPOS>MOLECULE
IMPHY007197
 28 30 0 0 0
SMALL
GASTEIGER

@<TRIPOS>ATOM
      1 O           7.3424    0.8047    0.0000 O.2     1  UNL1       -0.4590
      2 O           3.7702    1.0347    0.0000 O.2     1  UNL1       -0.4182
      3 O           5.5301   -2.0000    0.0000 O.3     1  UNL1       -0.4937
      4 O           5.5301    2.0000    0.0000 O.3     1  UNL1       -0.4884
      5 O           2.0000    1.0241    0.0000 O.2     1  UNL1       -0.2452
      6 C           6.3961   -0.5000    0.0000 C.ar    1  UNL1        0.0662
      7 C           4.6641   -0.5000    0.0000 C.ar    1  UNL1        0.0637
      8 C           6.3961    0.5000    0.0000 C.ar    1  UNL1        0.1834
      9 C           5.5301   -1.0000    0.0000 C.ar    1  UNL1        0.1417
     10 C           4.6641    0.5000    0.0000 C.ar    1  UNL1        0.1876
     11 C           5.5301    1.0000    0.0000 C.ar    1  UNL1        0.2063
     12 C           7.3424   -0.8047    0.0000 C.ar    1  UNL1       -0.0125
     13 C           3.7702   -1.0347    0.0000 C.ar    1  UNL1       -0.0406
     14 C           7.9260    0.0000    0.0000 C.ar    1  UNL1        0.0934
     15 C           2.8641   -0.5208    0.0000 C.ar    1  UNL1        0.0237
     16 C           2.8641    0.5208    0.0000 C.ar    1  UNL1        0.3373
     17 C           6.3961   -2.5000    0.0000 C.3     1  UNL1        0.0788
     18 C           6.3961    2.5000    0.0000 C.3     1  UNL1        0.0791
     19 H           7.5350   -1.3940    0.0000 H       1  UNL1        0.0656
     20 H           3.7773   -1.6546    0.0000 H       1  UNL1        0.0628
     21 H           8.5460    0.0000    0.0000 H       1  UNL1        0.1030
     22 H           2.3284   -0.8329    0.0000 H       1  UNL1        0.0689
     23 H           6.0862   -3.0369    0.0000 H       1  UNL1        0.0660
     24 H           6.9331   -2.8100    0.0000 H       1  UNL1        0.0660
     25 H           6.7062   -1.9631    0.0000 H       1  UNL1        0.0660
     26 H           6.7062    1.9631    0.0000 H       1  UNL1        0.0660
     27 H           6.9331    2.8100    0.0000 H       1  UNL1        0.0660
     28 H           6.0862    3.0369    0.0000 H       1  UNL1        0.0660
@<TRIPOS>BOND
     1     1     8   ar
     2     1    14   ar
     3     2    10   ar
     4     2    16   ar
     5     3     9    1
     6     3    17    1
     7     4    11    1
     8     4    18    1
     9     5    16    2
    10     6     8   ar
    11     6     9   ar
    12     6    12   ar
    13     7     9   ar
    14     7    10   ar
    15     7    13   ar
    16     8    11   ar
    17    10    11   ar
    18    12    14   ar
    19    12    19    1
    20    13    15   ar
    21    13    20    1
    22    14    21    1
    23    15    16   ar
    24    15    22    1
    25    17    23    1
    26    17    24    1
    27    17    25    1
    28    18    26    1
    29    18    27    1
    30    18    28    1
