@<TRIPOS>MOLECULE
IMPHY008400
 56 60 0 0 0
SMALL
GASTEIGER

@<TRIPOS>ATOM
      1 O           6.8671   -1.3195    0.0000 O.3     1  UNL1       -0.3387
      2 O           5.1350   -1.3195    0.0000 O.3     1  UNL1       -0.3405
      3 O           5.0839    1.8249    0.0000 O.3     1  UNL1       -0.3870
      4 O           5.0597   -0.2667    0.0000 O.3     1  UNL1       -0.3863
      5 O           6.8671   -3.3195    0.0000 O.3     1  UNL1       -0.3841
      6 O           5.1350   -4.3195    0.0000 O.3     1  UNL1       -0.3864
      7 O           3.4030   -3.3195    0.0000 O.3     1  UNL1       -0.3865
      8 O           2.5369   -1.8195    0.0000 O.3     1  UNL1       -0.3924
      9 O           7.8391    4.3805    0.0000 O.2     1  UNL1       -0.2700
     10 O          11.3667    1.5002    0.0000 O.3     1  UNL1       -0.4524
     11 O          11.3853    3.1095    0.0000 O.3     1  UNL1       -0.4489
     12 O           9.5870    4.3257    0.0000 O.3     1  UNL1       -0.5027
     13 N           6.9040    2.8774    0.0000 N.am    1  UNL1       -0.3018
     14 C           6.8920    1.8359    0.0000 C.3     1  UNL1        0.0774
     15 C           5.9421    1.3116    0.0000 C.3     1  UNL1        0.1061
     16 C           6.8671   -0.3195    0.0000 C.3     1  UNL1        0.1088
     17 C           5.9295    0.2267    0.0000 C.3     1  UNL1        0.1128
     18 C           7.7920    1.3116    0.0000 C.2     1  UNL1       -0.0180
     19 C           6.0010   -1.8195    0.0000 C.3     1  UNL1        0.1887
     20 C           6.0010   -2.8195    0.0000 C.3     1  UNL1        0.1341
     21 C           5.1350   -3.3195    0.0000 C.3     1  UNL1        0.1141
     22 C           7.8046    0.2267    0.0000 C.2     1  UNL1       -0.0474
     23 C           4.2690   -2.8195    0.0000 C.3     1  UNL1        0.1119
     24 C           4.2690   -1.8195    0.0000 C.3     1  UNL1        0.1130
     25 C           8.6921    1.8359    0.0000 C.ar    1  UNL1       -0.0009
     26 C           8.7037    2.8358    0.0000 C.ar    1  UNL1        0.0893
     27 C           7.8160    3.3808    0.0000 C.2     1  UNL1        0.2488
     28 C           3.4030   -1.3195    0.0000 C.3     1  UNL1        0.0730
     29 C           9.5523    1.3259    0.0000 C.ar    1  UNL1       -0.0077
     30 C           9.5754    3.3258    0.0000 C.ar    1  UNL1        0.1752
     31 C          10.4241    1.8158    0.0000 C.ar    1  UNL1        0.1705
     32 C          10.4356    2.8158    0.0000 C.ar    1  UNL1        0.2081
     33 C          11.9596    2.2981    0.0000 C.3     1  UNL1        0.2334
     34 H           6.1625    2.2722    0.0000 H       1  UNL1        0.0575
     35 H           5.4010    1.0088    0.0000 H       1  UNL1        0.0642
     36 H           7.4046   -0.6284    0.0000 H       1  UNL1        0.0668
     37 H           5.9259   -0.3933    0.0000 H       1  UNL1        0.0649
     38 H           6.5380   -2.1295    0.0000 H       1  UNL1        0.0938
     39 H           6.0010   -3.4395    0.0000 H       1  UNL1        0.0671
     40 H           4.5981   -3.6295    0.0000 H       1  UNL1        0.0648
     41 H           8.3439   -0.0792    0.0000 H       1  UNL1        0.0602
     42 H           3.7320   -2.5095    0.0000 H       1  UNL1        0.0647
     43 H           4.2690   -1.1995    0.0000 H       1  UNL1        0.0647
     44 H           6.3719    3.1957    0.0000 H       1  UNL1        0.1497
     45 H           3.8015   -0.8445    0.0000 H       1  UNL1        0.0584
     46 H           3.0044   -0.8445    0.0000 H       1  UNL1        0.0584
     47 H           4.5422    1.5232    0.0000 H       1  UNL1        0.2100
     48 H           4.5251    0.0475    0.0000 H       1  UNL1        0.2100
     49 H           9.5451    0.7059    0.0000 H       1  UNL1        0.0661
     50 H           6.8671   -3.9395    0.0000 H       1  UNL1        0.2101
     51 H           4.5981   -4.6295    0.0000 H       1  UNL1        0.2100
     52 H           3.4030   -3.9395    0.0000 H       1  UNL1        0.2100
     53 H           2.0000   -1.5095    0.0000 H       1  UNL1        0.2095
     54 H          12.4156    1.8781    0.0000 H       1  UNL1        0.1166
     55 H          12.4252    2.7075    0.0000 H       1  UNL1        0.1166
     56 H          10.1275    4.6295    0.0000 H       1  UNL1        0.2923
@<TRIPOS>BOND
     1    16     1    1
     2    19     1    1
     3     2    19    1
     4     2    24    1
     5    15     3    1
     6     3    47    1
     7    17     4    1
     8     4    48    1
     9    20     5    1
    10     5    50    1
    11    21     6    1
    12     6    51    1
    13    23     7    1
    14     7    52    1
    15     8    28    1
    16     8    53    1
    17     9    27    2
    18    10    31    1
    19    10    33    1
    20    11    32    1
    21    11    33    1
    22    12    30    1
    23    12    56    1
    24    13    14    1
    25    13    27   am
    26    13    44    1
    27    14    15    1
    28    14    18    1
    29    14    34    1
    30    15    17    1
    31    15    35    1
    32    16    17    1
    33    16    22    1
    34    16    36    1
    35    17    37    1
    36    18    22    2
    37    18    25    1
    38    19    20    1
    39    19    38    1
    40    20    21    1
    41    20    39    1
    42    21    23    1
    43    21    40    1
    44    22    41    1
    45    23    24    1
    46    23    42    1
    47    24    28    1
    48    24    43    1
    49    25    26   ar
    50    25    29   ar
    51    26    27    1
    52    26    30   ar
    53    28    45    1
    54    28    46    1
    55    29    31   ar
    56    29    49    1
    57    30    32   ar
    58    31    32   ar
    59    33    54    1
    60    33    55    1
