@<TRIPOS>MOLECULE
IMPHY016205
 52 54 0 0 0
SMALL
GASTEIGER

@<TRIPOS>ATOM
      1 C           5.3033   -0.0902    0.0000 C.3     1  UNL1       -0.0256
      2 C           6.1694    0.4098    0.0000 C.3     1  UNL1       -0.0263
      3 C           5.3033   -1.0902    0.0000 C.3     1  UNL1       -0.0346
      4 C           7.0354   -0.0902    0.0000 C.3     1  UNL1       -0.0080
      5 C           4.4094    0.4444    0.0000 C.3     1  UNL1       -0.0463
      6 C           6.1694   -1.5902    0.0000 C.3     1  UNL1       -0.0489
      7 C           7.0354   -1.0902    0.0000 C.3     1  UNL1       -0.0434
      8 C           4.4094   -1.6249    0.0000 C.3     1  UNL1       -0.0408
      9 C           3.5033   -1.1111    0.0000 C.3     1  UNL1       -0.0140
     10 C           6.1533    1.4513    0.0000 C.3     1  UNL1       -0.0486
     11 C           3.5033   -0.0694    0.0000 C.3     1  UNL1       -0.0437
     12 C           5.3033    0.9098    0.0000 C.3     1  UNL1       -0.0590
     13 C           7.9454    0.4166    0.0000 C.2     1  UNL1       -0.0704
     14 C           7.0513    1.9790    0.0000 C.3     1  UNL1       -0.0491
     15 C           7.9014   -0.5903    0.0000 C.3     1  UNL1       -0.0556
     16 C           7.9534    1.4582    0.0000 C.3     1  UNL1       -0.0315
     17 C           3.0067   -1.9790    0.0000 C.3     1  UNL1       -0.0561
     18 C           2.5033   -1.1149    0.0000 C.2     1  UNL1       -0.0852
     19 C           8.8056   -0.0934    0.0000 C.2     1  UNL1       -0.0989
     20 C           2.0000   -0.2508    0.0000 C.2     1  UNL1       -0.1021
     21 H           6.7039    0.7239    0.0000 H       1  UNL1        0.0314
     22 H           5.3081   -1.7102    0.0000 H       1  UNL1        0.0306
     23 H           4.8140    0.9142    0.0000 H       1  UNL1        0.0271
     24 H           4.0158    0.9234    0.0000 H       1  UNL1        0.0271
     25 H           5.7708   -2.0652    0.0000 H       1  UNL1        0.0268
     26 H           6.5679   -2.0652    0.0000 H       1  UNL1        0.0268
     27 H           7.2474   -1.6729    0.0000 H       1  UNL1        0.0274
     28 H           7.6460   -0.9826    0.0000 H       1  UNL1        0.0274
     29 H           4.0158   -2.1039    0.0000 H       1  UNL1        0.0276
     30 H           4.8140   -2.0947    0.0000 H       1  UNL1        0.0276
     31 H           5.9353    2.0317    0.0000 H       1  UNL1        0.0268
     32 H           5.5442    1.3358    0.0000 H       1  UNL1        0.0268
     33 H           3.2943    0.5143    0.0000 H       1  UNL1        0.0274
     34 H           2.8925   -0.1755    0.0000 H       1  UNL1        0.0274
     35 H           5.9233    0.9098    0.0000 H       1  UNL1        0.0235
     36 H           5.3033    1.5298    0.0000 H       1  UNL1        0.0235
     37 H           4.6833    0.9098    0.0000 H       1  UNL1        0.0235
     38 H           7.4486    2.4550    0.0000 H       1  UNL1        0.0268
     39 H           6.6504    2.4519    0.0000 H       1  UNL1        0.0268
     40 H           7.5914   -1.1272    0.0000 H       1  UNL1        0.0238
     41 H           8.4384   -0.9002    0.0000 H       1  UNL1        0.0238
     42 H           8.2114   -0.0533    0.0000 H       1  UNL1        0.0238
     43 H           8.5634    1.3474    0.0000 H       1  UNL1        0.0310
     44 H           8.1670    2.0403    0.0000 H       1  UNL1        0.0310
     45 H           2.4685   -1.6711    0.0000 H       1  UNL1        0.0238
     46 H           2.6987   -2.5171    0.0000 H       1  UNL1        0.0238
     47 H           3.5448   -2.2869    0.0000 H       1  UNL1        0.0238
     48 H           2.1954   -1.6530    0.0000 H       1  UNL1        0.0572
     49 H           8.7984   -0.7133    0.0000 H       1  UNL1        0.0535
     50 H           9.3461    0.2104    0.0000 H       1  UNL1        0.0535
     51 H           2.3079    0.2873    0.0000 H       1  UNL1        0.0532
     52 H           1.3800   -0.2532    0.0000 H       1  UNL1        0.0532
@<TRIPOS>BOND
     1     1     2    1
     2     1     3    1
     3     1     5    1
     4     1    12    1
     5     2     4    1
     6     2    10    1
     7     2    21    1
     8     3     6    1
     9     3     8    1
    10     3    22    1
    11     4     7    1
    12     4    13    1
    13     4    15    1
    14     5    11    1
    15     5    23    1
    16     5    24    1
    17     6     7    1
    18     6    25    1
    19     6    26    1
    20     7    27    1
    21     7    28    1
    22     8     9    1
    23     8    29    1
    24     8    30    1
    25     9    11    1
    26     9    17    1
    27     9    18    1
    28    10    14    1
    29    10    31    1
    30    10    32    1
    31    11    33    1
    32    11    34    1
    33    12    35    1
    34    12    36    1
    35    12    37    1
    36    13    16    1
    37    13    19    2
    38    14    16    1
    39    14    38    1
    40    14    39    1
    41    15    40    1
    42    15    41    1
    43    15    42    1
    44    16    43    1
    45    16    44    1
    46    17    45    1
    47    17    46    1
    48    17    47    1
    49    18    20    2
    50    18    48    1
    51    19    49    1
    52    19    50    1
    53    20    51    1
    54    20    52    1
