@<TRIPOS>MOLECULE
IMPHY010510
 58 62 0 0 0
SMALL
GASTEIGER

@<TRIPOS>ATOM
      1 O           4.2351   -1.4511    0.0000 O.3     1  UNL1       -0.3602
      2 O           5.1014    2.0493    0.0000 O.3     1  UNL1       -0.3886
      3 O           6.8335    1.0493    0.0000 O.3     1  UNL1       -0.3888
      4 O           9.6285   -2.5030    0.0000 O.3     1  UNL1       -0.3918
      5 O           3.6464    2.5489    0.0000 O.2     1  UNL1       -0.2974
      6 C           4.2354   -0.4507    0.0000 C.3     1  UNL1        0.1079
      7 C           5.1014   -0.9507    0.0000 C.3     1  UNL1        0.1055
      8 C           4.2354    0.5493    0.0000 C.3     1  UNL1        0.0375
      9 C           5.9674   -0.4507    0.0000 C.3     1  UNL1        0.0250
     10 C           6.8774   -0.9575    0.0000 C.3     1  UNL1       -0.0211
     11 C           3.2892   -0.7554    0.0000 C.3     1  UNL1       -0.0197
     12 C           5.0854   -1.9922    0.0000 C.3     1  UNL1       -0.0203
     13 C           5.1014    1.0493    0.0000 C.3     1  UNL1        0.0901
     14 C           5.9674    0.5493    0.0000 C.3     1  UNL1        0.0877
     15 C           3.2892    0.8540    0.0000 C.3     1  UNL1        0.0279
     16 C           6.8855   -1.9991    0.0000 C.3     1  UNL1       -0.0328
     17 C           2.7056    0.0493    0.0000 C.3     1  UNL1       -0.0401
     18 C           5.9834   -2.5200    0.0000 C.3     1  UNL1       -0.0469
     19 C           4.2354    1.5493    0.0000 C.3     1  UNL1       -0.0537
     20 C           7.8043   -0.3935    0.0000 C.3     1  UNL1       -0.0446
     21 C           6.8697    0.0424    0.0000 C.3     1  UNL1       -0.0589
     22 C           7.8209   -2.5489    0.0000 C.3     1  UNL1       -0.0235
     23 C           8.7522   -0.9214    0.0000 C.3     1  UNL1       -0.0263
     24 C           2.9785    1.8046    0.0000 C.2     1  UNL1        0.1341
     25 C           8.7605   -2.0064    0.0000 C.3     1  UNL1        0.0555
     26 C           2.0000    2.0108    0.0000 C.3     1  UNL1       -0.0058
     27 H           6.7003   -0.0200    0.0000 H       1  UNL1        0.0361
     28 H           2.7518   -1.0647    0.0000 H       1  UNL1        0.0294
     29 H           3.5402   -1.3223    0.0000 H       1  UNL1        0.0294
     30 H           4.4762   -1.8767    0.0000 H       1  UNL1        0.0294
     31 H           4.8673   -2.5726    0.0000 H       1  UNL1        0.0294
     32 H           5.6384    1.3593    0.0000 H       1  UNL1        0.0626
     33 H           5.9674    1.1693    0.0000 H       1  UNL1        0.0623
     34 H           2.6767    0.9502    0.0000 H       1  UNL1        0.0384
     35 H           6.8822   -2.8491    0.0000 H       1  UNL1        0.0307
     36 H           2.2447    0.4640    0.0000 H       1  UNL1        0.0273
     37 H           2.2447   -0.3654    0.0000 H       1  UNL1        0.0273
     38 H           5.5824   -2.9928    0.0000 H       1  UNL1        0.0269
     39 H           6.3807   -2.9959    0.0000 H       1  UNL1        0.0269
     40 H           4.8554    1.5493    0.0000 H       1  UNL1        0.0237
     41 H           4.2354    2.1693    0.0000 H       1  UNL1        0.0237
     42 H           3.6154    1.5493    0.0000 H       1  UNL1        0.0237
     43 H           8.1942    0.0886    0.0000 H       1  UNL1        0.0272
     44 H           7.3961    0.0732    0.0000 H       1  UNL1        0.0272
     45 H           7.4897    0.0472    0.0000 H       1  UNL1        0.0235
     46 H           6.8650    0.6624    0.0000 H       1  UNL1        0.0235
     47 H           6.2498    0.0377    0.0000 H       1  UNL1        0.0235
     48 H           7.4199   -3.0218    0.0000 H       1  UNL1        0.0293
     49 H           8.2182   -3.0248    0.0000 H       1  UNL1        0.0293
     50 H           9.3638   -1.0228    0.0000 H       1  UNL1        0.0290
     51 H           8.9567   -0.3361    0.0000 H       1  UNL1        0.0290
     52 H           8.7617   -2.6264    0.0000 H       1  UNL1        0.0593
     53 H           5.6384    2.3593    0.0000 H       1  UNL1        0.2099
     54 H           6.8335    1.6693    0.0000 H       1  UNL1        0.2099
     55 H           2.1279    2.6174    0.0000 H       1  UNL1        0.0306
     56 H           1.3933    2.1386    0.0000 H       1  UNL1        0.0306
     57 H           1.8721    1.4041    0.0000 H       1  UNL1        0.0306
     58 H          10.1642   -2.1910    0.0000 H       1  UNL1        0.2098
@<TRIPOS>BOND
     1     6     1    1
     2     7     1    1
     3    13     2    1
     4     2    53    1
     5    14     3    1
     6     3    54    1
     7    25     4    1
     8     4    58    1
     9     5    24    2
    10     6     7    1
    11     6     8    1
    12     6    11    1
    13     7     9    1
    14     7    12    1
    15     8    13    1
    16     8    15    1
    17     8    19    1
    18     9    10    1
    19     9    14    1
    20     9    27    1
    21    10    16    1
    22    10    20    1
    23    10    21    1
    24    11    17    1
    25    11    28    1
    26    11    29    1
    27    12    18    1
    28    12    30    1
    29    12    31    1
    30    13    14    1
    31    13    32    1
    32    14    33    1
    33    15    17    1
    34    15    24    1
    35    15    34    1
    36    16    18    1
    37    16    22    1
    38    16    35    1
    39    17    36    1
    40    17    37    1
    41    18    38    1
    42    18    39    1
    43    19    40    1
    44    19    41    1
    45    19    42    1
    46    20    23    1
    47    20    43    1
    48    20    44    1
    49    21    45    1
    50    21    46    1
    51    21    47    1
    52    22    25    1
    53    22    48    1
    54    22    49    1
    55    23    25    1
    56    23    50    1
    57    23    51    1
    58    24    26    1
    59    25    52    1
    60    26    55    1
    61    26    56    1
    62    26    57    1
