@<TRIPOS>MOLECULE
IMPHY007708
 70 75 0 0 0
SMALL
GASTEIGER

@<TRIPOS>ATOM
      1 O           8.1282   -1.0173    0.0000 O.3     1  UNL1       -0.3670
      2 O           5.5301   -1.5173    0.0000 O.3     1  UNL1       -0.3856
      3 O           5.5301   -3.5173    0.0000 O.3     1  UNL1       -0.4825
      4 O           7.3424   -4.7126    0.0000 O.2     1  UNL1       -0.4591
      5 O           3.7702   -4.4826    0.0000 O.2     1  UNL1       -0.4183
      6 O           9.8602    2.9827    0.0000 O.3     1  UNL1       -0.4810
      7 O          11.8015    2.0109    0.0000 O.2     1  UNL1       -0.4591
      8 O           9.8163    4.9896    0.0000 O.2     1  UNL1       -0.4183
      9 O           2.0000   -4.4932    0.0000 O.2     1  UNL1       -0.2452
     10 O           8.9403    6.5278    0.0000 O.2     1  UNL1       -0.2452
     11 C           7.2622   -1.5173    0.0000 C.3     1  UNL1        0.0933
     12 C           6.3961   -2.0173    0.0000 C.3     1  UNL1        0.1174
     13 C           6.3961   -3.0173    0.0000 C.3     1  UNL1        0.1184
     14 C           6.7622   -0.6513    0.0000 C.3     1  UNL1       -0.0335
     15 C           7.7622   -2.3833    0.0000 C.3     1  UNL1       -0.0335
     16 C           8.1282   -0.0173    0.0000 C.3     1  UNL1        0.0694
     17 C           5.5301   -4.5173    0.0000 C.ar    1  UNL1        0.2064
     18 C           8.9942    0.4827    0.0000 C.2     1  UNL1       -0.0481
     19 C           6.3961   -5.0173    0.0000 C.ar    1  UNL1        0.1799
     20 C           4.6641   -5.0173    0.0000 C.ar    1  UNL1        0.1842
     21 C           6.3961   -6.0173    0.0000 C.ar    1  UNL1        0.0246
     22 C           4.6641   -6.0173    0.0000 C.ar    1  UNL1        0.0221
     23 C           8.9942    1.4827    0.0000 C.2     1  UNL1       -0.0460
     24 C           5.5301   -6.5173    0.0000 C.ar    1  UNL1       -0.0401
     25 C           9.8602   -0.0173    0.0000 C.3     1  UNL1       -0.0415
     26 C           9.8602    1.9827    0.0000 C.3     1  UNL1        0.1085
     27 C           7.3424   -6.3220    0.0000 C.ar    1  UNL1       -0.0160
     28 C          10.7263    3.4827    0.0000 C.ar    1  UNL1        0.2066
     29 C           3.7702   -6.5520    0.0000 C.ar    1  UNL1       -0.0442
     30 C          11.5923    2.9827    0.0000 C.ar    1  UNL1        0.1799
     31 C          10.7263    4.4827    0.0000 C.ar    1  UNL1        0.1842
     32 C           7.9260   -5.5173    0.0000 C.ar    1  UNL1        0.0933
     33 C          12.4583    3.4827    0.0000 C.ar    1  UNL1        0.0246
     34 C          11.5923    4.9827    0.0000 C.ar    1  UNL1        0.0221
     35 C          12.4583    4.4827    0.0000 C.ar    1  UNL1       -0.0401
     36 C           2.8641   -6.0381    0.0000 C.ar    1  UNL1        0.0236
     37 C           2.8641   -4.9965    0.0000 C.ar    1  UNL1        0.3373
     38 C          13.1953    2.8156    0.0000 C.ar    1  UNL1       -0.0160
     39 C          11.6084    6.0242    0.0000 C.ar    1  UNL1       -0.0442
     40 C          12.7902    1.9078    0.0000 C.ar    1  UNL1        0.0933
     41 C          10.7103    6.5520    0.0000 C.ar    1  UNL1        0.0236
     42 C           9.8082    6.0312    0.0000 C.ar    1  UNL1        0.3373
     43 H           5.8592   -2.3273    0.0000 H       1  UNL1        0.0656
     44 H           6.6082   -3.5999    0.0000 H       1  UNL1        0.0724
     45 H           7.0067   -2.9096    0.0000 H       1  UNL1        0.0724
     46 H           7.2252   -2.6933    0.0000 H       1  UNL1        0.0258
     47 H           8.0722   -2.9203    0.0000 H       1  UNL1        0.0258
     48 H           8.2991   -2.0733    0.0000 H       1  UNL1        0.0258
     49 H           7.2991   -0.3413    0.0000 H       1  UNL1        0.0258
     50 H           6.4522   -0.1143    0.0000 H       1  UNL1        0.0258
     51 H           6.2252   -0.9613    0.0000 H       1  UNL1        0.0258
     52 H           7.9162    0.5653    0.0000 H       1  UNL1        0.0607
     53 H           7.5176   -0.1250    0.0000 H       1  UNL1        0.0607
     54 H           5.5301   -0.8973    0.0000 H       1  UNL1        0.2100
     55 H           8.4573    1.7927    0.0000 H       1  UNL1        0.0606
     56 H           5.5301   -7.1373    0.0000 H       1  UNL1        0.0632
     57 H           9.5502   -0.5542    0.0000 H       1  UNL1        0.0275
     58 H          10.3972   -0.3273    0.0000 H       1  UNL1        0.0275
     59 H          10.1703    0.5196    0.0000 H       1  UNL1        0.0275
     60 H          10.0723    1.4001    0.0000 H       1  UNL1        0.0742
     61 H          10.4708    2.0904    0.0000 H       1  UNL1        0.0742
     62 H           7.5350   -6.9114    0.0000 H       1  UNL1        0.0655
     63 H           3.7773   -7.1719    0.0000 H       1  UNL1        0.0627
     64 H           8.5460   -5.5173    0.0000 H       1  UNL1        0.1030
     65 H          12.9953    4.7927    0.0000 H       1  UNL1        0.0632
     66 H           2.3284   -6.3502    0.0000 H       1  UNL1        0.0689
     67 H          13.8020    2.9435    0.0000 H       1  UNL1        0.0655
     68 H          12.1488    6.3280    0.0000 H       1  UNL1        0.0627
     69 H          13.1002    1.3709    0.0000 H       1  UNL1        0.1030
     70 H          10.7127    7.1720    0.0000 H       1  UNL1        0.0689
@<TRIPOS>BOND
     1     1    11    1
     2     1    16    1
     3     2    12    1
     4     2    54    1
     5     3    13    1
     6     3    17    1
     7     4    19   ar
     8     4    32   ar
     9     5    20   ar
    10     5    37   ar
    11     6    26    1
    12     6    28    1
    13     7    30   ar
    14     7    40   ar
    15     8    31   ar
    16     8    42   ar
    17     9    37    2
    18    10    42    2
    19    11    12    1
    20    11    14    1
    21    11    15    1
    22    12    13    1
    23    12    43    1
    24    13    44    1
    25    13    45    1
    26    14    49    1
    27    14    50    1
    28    14    51    1
    29    15    46    1
    30    15    47    1
    31    15    48    1
    32    16    18    1
    33    16    52    1
    34    16    53    1
    35    17    19   ar
    36    17    20   ar
    37    18    23    2
    38    18    25    1
    39    19    21   ar
    40    20    22   ar
    41    21    24   ar
    42    21    27   ar
    43    22    24   ar
    44    22    29   ar
    45    23    26    1
    46    23    55    1
    47    24    56    1
    48    25    57    1
    49    25    58    1
    50    25    59    1
    51    26    60    1
    52    26    61    1
    53    27    32   ar
    54    27    62    1
    55    28    30   ar
    56    28    31   ar
    57    29    36   ar
    58    29    63    1
    59    30    33   ar
    60    31    34   ar
    61    32    64    1
    62    33    35   ar
    63    33    38   ar
    64    34    35   ar
    65    34    39   ar
    66    35    65    1
    67    36    37   ar
    68    36    66    1
    69    38    40   ar
    70    38    67    1
    71    39    41   ar
    72    39    68    1
    73    40    69    1
    74    41    42   ar
    75    41    70    1
