@<TRIPOS>MOLECULE
IMPHY017911
 15 14 0 0 0
SMALL
GASTEIGER

@<TRIPOS>ATOM
      1 C           5.7719    0.0000    0.0000 C.3     1  UNL1        0.0094
      2 C           5.7719   -1.3288    0.0000 C.3     1  UNL1        0.0440
      3 C           6.9207   -1.9932    0.0000 C.2     1  UNL1       -0.0221
      4 C           8.0696   -1.3288    0.0000 C.2     1  UNL1       -0.0046
      5 C           9.2184   -1.9932    0.0000 C.2     1  UNL1       -0.0046
      6 C          10.3811   -1.3288    0.0000 C.2     1  UNL1       -0.0219
      7 C          11.5299   -1.9932    0.0000 C.2     1  UNL1       -0.0043
      8 C          12.6926   -1.3288    0.0000 C.2     1  UNL1       -0.0003
      9 C           4.6230   -1.9932    0.0000 C.2     1  UNL1       -0.0221
     10 C           3.4604   -1.3288    0.0000 C.2     1  UNL1       -0.0049
     11 C           2.3115   -1.9932    0.0000 C.2     1  UNL1       -0.0088
     12 C           1.1488   -1.3288    0.0000 C.2     1  UNL1       -0.0436
     13 C           0.0000   -1.9932    0.0000 C.3     1  UNL1        0.0264
     14 C          10.3811    0.0000    0.0000 C.3     1  UNL1        0.0310
     15 C           1.1488    0.0000    0.0000 C.3     1  UNL1        0.0264
@<TRIPOS>BOND
     1     1     2    1
     2     2     3    1
     3     2     9    1
     4     3     4    2
     5     4     5    1
     6     5     6    2
     7     6     7    1
     8     6    14    1
     9     7     8    2
    10     9    10    2
    11    10    11    1
    12    11    12    2
    13    12    15    1
    14    12    13    1
