@<TRIPOS>MOLECULE
IMPHY012528
 82 85 0 0 0
SMALL
GASTEIGER

@<TRIPOS>ATOM
      1 O          10.4473   -0.8650    0.0000 O.3     1  UNL1       -0.3914
      2 O          10.1248    0.5796    0.0000 O.3     1  UNL1       -0.3810
      3 O           5.3194    0.1350    0.0000 O.2     1  UNL1       -0.2968
      4 O           8.8172    2.5851    0.0000 O.2     1  UNL1       -0.2943
      5 O           2.5405   -1.3257    0.0000 O.2     1  UNL1       -0.5036
      6 O           2.5244   -3.4173    0.0000 O.2     1  UNL1       -0.2879
      7 O          10.1063    3.7418    0.0000 O.3     1  UNL1       -0.3886
      8 O          12.7312    3.4099    0.0000 O.3     1  UNL1       -0.3866
      9 C           7.9174   -1.3650    0.0000 C.3     1  UNL1       -0.0195
     10 C           7.9174   -0.3650    0.0000 C.3     1  UNL1       -0.0115
     11 C           7.0514   -1.8650    0.0000 C.3     1  UNL1       -0.0187
     12 C           8.8637   -0.0603    0.0000 C.3     1  UNL1        0.0268
     13 C           6.1854   -1.3650    0.0000 C.3     1  UNL1        0.0398
     14 C           8.8637   -1.6697    0.0000 C.3     1  UNL1       -0.0202
     15 C           9.4473   -0.8650    0.0000 C.3     1  UNL1        0.0621
     16 C           7.0514    0.1350    0.0000 C.3     1  UNL1        0.0128
     17 C           6.1854   -0.3650    0.0000 C.2     1  UNL1        0.1409
     18 C           5.2754   -1.8719    0.0000 C.3     1  UNL1        0.0152
     19 C           7.9174   -2.3650    0.0000 C.3     1  UNL1       -0.0587
     20 C           7.0675   -2.9065    0.0000 C.3     1  UNL1       -0.0302
     21 C           7.9174    0.6350    0.0000 C.3     1  UNL1       -0.0582
     22 C           9.1743    0.8902    0.0000 C.3     1  UNL1        0.1265
     23 C           5.3194   -0.8650    0.0000 C.3     1  UNL1       -0.0517
     24 C           5.2674   -2.9135    0.0000 C.2     1  UNL1       -0.0524
     25 C           6.1694   -3.4343    0.0000 C.2     1  UNL1       -0.0829
     26 C           4.3319   -3.4632    0.0000 C.3     1  UNL1        0.0525
     27 C           4.3486   -1.3078    0.0000 C.2     1  UNL1       -0.0309
     28 C           8.2238    1.2009    0.0000 C.3     1  UNL1       -0.0287
     29 C           9.4850    1.8408    0.0000 C.2     1  UNL1        0.1672
     30 C           3.3923   -2.9207    0.0000 C.2     1  UNL1        0.2063
     31 C           3.4007   -1.8357    0.0000 C.2     1  UNL1        0.1567
     32 C          10.4635    2.0470    0.0000 C.3     1  UNL1        0.0374
     33 C           3.8353   -4.3311    0.0000 C.3     1  UNL1       -0.0489
     34 C           4.8353   -4.3273    0.0000 C.3     1  UNL1       -0.0489
     35 C          10.7742    2.9975    0.0000 C.3     1  UNL1        0.0901
     36 C          11.7527    3.2037    0.0000 C.3     1  UNL1        0.0866
     37 C          11.5464    4.1822    0.0000 C.3     1  UNL1       -0.0339
     38 C          11.9589    2.2252    0.0000 C.3     1  UNL1       -0.0339
     39 H           7.7908   -2.2843    0.0000 H       1  UNL1        0.0319
     40 H           8.2639    0.5421    0.0000 H       1  UNL1        0.0363
     41 H           8.6126   -2.2366    0.0000 H       1  UNL1        0.0296
     42 H           9.4010   -1.9790    0.0000 H       1  UNL1        0.0296
     43 H           9.7290   -1.4173    0.0000 H       1  UNL1        0.0597
     44 H           7.4500    0.6099    0.0000 H       1  UNL1        0.0347
     45 H           6.6529    0.6099    0.0000 H       1  UNL1        0.0347
     46 H           6.0066   -2.3053    0.0000 H       1  UNL1        0.0399
     47 H           7.2974   -2.3650    0.0000 H       1  UNL1        0.0235
     48 H           7.9174   -2.9850    0.0000 H       1  UNL1        0.0235
     49 H           8.5374   -2.3650    0.0000 H       1  UNL1        0.0235
     50 H           7.2855   -3.4869    0.0000 H       1  UNL1        0.0311
     51 H           7.6766   -2.7910    0.0000 H       1  UNL1        0.0311
     52 H           8.5374    0.6350    0.0000 H       1  UNL1        0.0235
     53 H           7.9174    1.2550    0.0000 H       1  UNL1        0.0235
     54 H           7.2974    0.6350    0.0000 H       1  UNL1        0.0235
     55 H           5.6294   -0.3281    0.0000 H       1  UNL1        0.0239
     56 H           4.7824   -0.5550    0.0000 H       1  UNL1        0.0239
     57 H           5.0094   -1.4020    0.0000 H       1  UNL1        0.0239
     58 H           6.1718   -4.0543    0.0000 H       1  UNL1        0.0572
     59 H           4.3605   -0.6879    0.0000 H       1  UNL1        0.0616
     60 H          10.7573   -1.4020    0.0000 H       1  UNL1        0.2098
     61 H           8.4164    1.7902    0.0000 H       1  UNL1        0.0262
     62 H           7.6345    1.3935    0.0000 H       1  UNL1        0.0262
     63 H           8.0312    0.6116    0.0000 H       1  UNL1        0.0262
     64 H          10.5863    0.9936    0.0000 H       1  UNL1        0.2107
     65 H          10.4841    1.4273    0.0000 H       1  UNL1        0.0369
     66 H          11.0773    1.9596    0.0000 H       1  UNL1        0.0369
     67 H           3.2972   -4.0232    0.0000 H       1  UNL1        0.0242
     68 H           3.5274   -4.8692    0.0000 H       1  UNL1        0.0242
     69 H           4.3734   -4.6390    0.0000 H       1  UNL1        0.0242
     70 H           4.2995   -4.6393    0.0000 H       1  UNL1        0.0242
     71 H           5.1473   -4.8630    0.0000 H       1  UNL1        0.0242
     72 H           5.3710   -4.0152    0.0000 H       1  UNL1        0.0242
     73 H          10.9668    3.5868    0.0000 H       1  UNL1        0.0626
     74 H           2.0000   -1.6295    0.0000 H       1  UNL1        0.2923
     75 H          10.2989    4.3311    0.0000 H       1  UNL1        0.2099
     76 H          12.1531    4.3101    0.0000 H       1  UNL1        0.0258
     77 H          11.4186    4.7889    0.0000 H       1  UNL1        0.0258
     78 H          10.9398    4.0544    0.0000 H       1  UNL1        0.0258
     79 H          11.3522    2.0974    0.0000 H       1  UNL1        0.0258
     80 H          12.0867    1.6185    0.0000 H       1  UNL1        0.0258
     81 H          12.5656    2.3531    0.0000 H       1  UNL1        0.0258
     82 H          12.9238    3.9993    0.0000 H       1  UNL1        0.2102
@<TRIPOS>BOND
     1    15     1    1
     2     1    60    1
     3    22     2    1
     4     2    64    1
     5     3    17    2
     6     4    29    2
     7     5    31    1
     8     5    74    1
     9     6    30    2
    10     7    35    1
    11     7    75    1
    12     8    36    1
    13     8    82    1
    14     9    10    1
    15     9    11    1
    16     9    14    1
    17     9    19    1
    18    10    12    1
    19    10    16    1
    20    10    21    1
    21    11    13    1
    22    11    20    1
    23    11    39    1
    24    12    15    1
    25    12    22    1
    26    12    40    1
    27    13    17    1
    28    13    18    1
    29    13    23    1
    30    14    15    1
    31    14    41    1
    32    14    42    1
    33    15    43    1
    34    16    17    1
    35    16    44    1
    36    16    45    1
    37    18    24    1
    38    18    27    1
    39    18    46    1
    40    19    47    1
    41    19    48    1
    42    19    49    1
    43    20    25    1
    44    20    50    1
    45    20    51    1
    46    21    52    1
    47    21    53    1
    48    21    54    1
    49    22    28    1
    50    22    29    1
    51    23    55    1
    52    23    56    1
    53    23    57    1
    54    24    25    2
    55    24    26    1
    56    25    58    1
    57    26    30    1
    58    26    33    1
    59    26    34    1
    60    27    31    2
    61    27    59    1
    62    28    61    1
    63    28    62    1
    64    28    63    1
    65    29    32    1
    66    30    31    1
    67    32    35    1
    68    32    65    1
    69    32    66    1
    70    33    67    1
    71    33    68    1
    72    33    69    1
    73    34    70    1
    74    34    71    1
    75    34    72    1
    76    35    36    1
    77    35    73    1
    78    36    37    1
    79    36    38    1
    80    37    76    1
    81    37    77    1
    82    37    78    1
    83    38    79    1
    84    38    80    1
    85    38    81    1
