@<TRIPOS>MOLECULE
IMPHY003305
 33 34 0 0 0
SMALL
GASTEIGER

@<TRIPOS>ATOM
      1 O           6.3580    0.1980    0.0000 O.2     1  UNL1       -0.4214
      2 O           2.8660    0.2327    0.0000 O.3     1  UNL1       -0.4944
      3 O           3.7320   -2.2673    0.0000 O.2     1  UNL1       -0.2957
      4 O           8.1282    0.2085    0.0000 O.2     1  UNL1       -0.2452
      5 C           4.5981    0.2327    0.0000 C.ar    1  UNL1        0.0697
      6 C           5.4641    0.7327    0.0000 C.ar    1  UNL1        0.1503
      7 C           5.4641    1.7327    0.0000 C.ar    1  UNL1        0.0184
      8 C           4.5981   -0.7673    0.0000 C.2     1  UNL1        0.0271
      9 C           3.7320    0.7327    0.0000 C.ar    1  UNL1        0.1314
     10 C           5.4641   -1.2673    0.0000 C.2     1  UNL1       -0.0647
     11 C           4.5981    2.2327    0.0000 C.ar    1  UNL1       -0.0476
     12 C           3.7320    1.7327    0.0000 C.ar    1  UNL1       -0.0186
     13 C           6.3580    2.2673    0.0000 C.ar    1  UNL1       -0.0443
     14 C           5.4641   -2.2673    0.0000 C.3     1  UNL1       -0.0431
     15 C           6.3301   -0.7673    0.0000 C.3     1  UNL1       -0.0431
     16 C           7.2641    1.7535    0.0000 C.ar    1  UNL1        0.0236
     17 C           3.7320   -1.2673    0.0000 C.2     1  UNL1        0.1509
     18 C           7.2641    0.7119    0.0000 C.ar    1  UNL1        0.3372
     19 C           2.0000    0.7327    0.0000 C.3     1  UNL1        0.0788
     20 H           4.5981    2.8527    0.0000 H       1  UNL1        0.0626
     21 H           3.1951    2.0427    0.0000 H       1  UNL1        0.0654
     22 H           6.3509    2.8873    0.0000 H       1  UNL1        0.0627
     23 H           6.6401   -1.3043    0.0000 H       1  UNL1        0.0275
     24 H           6.8671   -0.4573    0.0000 H       1  UNL1        0.0275
     25 H           6.0201   -0.2304    0.0000 H       1  UNL1        0.0275
     26 H           4.8441   -2.2673    0.0000 H       1  UNL1        0.0275
     27 H           5.4641   -2.8873    0.0000 H       1  UNL1        0.0275
     28 H           6.0841   -2.2673    0.0000 H       1  UNL1        0.0275
     29 H           7.7998    2.0656    0.0000 H       1  UNL1        0.0689
     30 H           3.1951   -0.9573    0.0000 H       1  UNL1        0.1082
     31 H           2.3100    1.2696    0.0000 H       1  UNL1        0.0660
     32 H           1.4631    1.0427    0.0000 H       1  UNL1        0.0660
     33 H           1.6900    0.1957    0.0000 H       1  UNL1        0.0660
@<TRIPOS>BOND
     1     1     6   ar
     2     1    18   ar
     3     2     9    1
     4     2    19    1
     5     3    17    2
     6     4    18    2
     7     5     6   ar
     8     5     8    1
     9     5     9   ar
    10     6     7   ar
    11     7    11   ar
    12     7    13   ar
    13     8    10    2
    14     8    17    1
    15     9    12   ar
    16    10    14    1
    17    10    15    1
    18    11    12   ar
    19    11    20    1
    20    12    21    1
    21    13    16   ar
    22    13    22    1
    23    14    26    1
    24    14    27    1
    25    14    28    1
    26    15    23    1
    27    15    24    1
    28    15    25    1
    29    16    18   ar
    30    16    29    1
    31    17    30    1
    32    19    31    1
    33    19    32    1
    34    19    33    1
