@<TRIPOS>MOLECULE
IMPHY001618
 52 54 0 0 0
SMALL
GASTEIGER

@<TRIPOS>ATOM
      1 O           2.5381   -1.9612    0.0000 O.3     1  UNL1       -0.3912
      2 O           7.8003   -1.9370    0.0000 O.2     1  UNL1       -0.2924
      3 C           5.2022   -0.4370    0.0000 C.3     1  UNL1       -0.0213
      4 C           5.2022   -1.4370    0.0000 C.3     1  UNL1       -0.0206
      5 C           4.3083   -1.9717    0.0000 C.3     1  UNL1       -0.0052
      6 C           6.0682    0.0630    0.0000 C.3     1  UNL1       -0.0071
      7 C           4.3083    0.0976    0.0000 C.3     1  UNL1       -0.0444
      8 C           3.4022   -1.4578    0.0000 C.3     1  UNL1        0.0606
      9 C           6.0682   -1.9370    0.0000 C.3     1  UNL1        0.0140
     10 C           3.4022   -0.4162    0.0000 C.3     1  UNL1       -0.0258
     11 C           6.9343   -0.4370    0.0000 C.2     1  UNL1       -0.0045
     12 C           6.0522    1.1045    0.0000 C.3     1  UNL1       -0.0445
     13 C           5.2022    0.5630    0.0000 C.3     1  UNL1       -0.0587
     14 C           6.9343   -1.4370    0.0000 C.2     1  UNL1        0.1595
     15 C           3.8183   -2.8434    0.0000 C.3     1  UNL1       -0.0572
     16 C           4.8183   -2.8319    0.0000 C.3     1  UNL1       -0.0572
     17 C           6.9502    1.6322    0.0000 C.3     1  UNL1       -0.0401
     18 C           7.8523    1.1114    0.0000 C.3     1  UNL1        0.0043
     19 C           7.8443    0.0698    0.0000 C.2     1  UNL1       -0.0676
     20 C           8.8523    1.1076    0.0000 C.3     1  UNL1       -0.0526
     21 C           8.3556    1.9755    0.0000 C.2     1  UNL1       -0.0815
     22 C           7.8590    2.8434    0.0000 C.2     1  UNL1       -0.1018
     23 H           5.2088   -2.2870    0.0000 H       1  UNL1        0.0316
     24 H           6.8011    0.4936    0.0000 H       1  UNL1        0.0355
     25 H           4.7129    0.5674    0.0000 H       1  UNL1        0.0272
     26 H           3.9147    0.5766    0.0000 H       1  UNL1        0.0272
     27 H           2.8647   -1.1489    0.0000 H       1  UNL1        0.0599
     28 H           5.6697   -2.4120    0.0000 H       1  UNL1        0.0348
     29 H           6.4668   -2.4120    0.0000 H       1  UNL1        0.0348
     30 H           3.1932    0.1675    0.0000 H       1  UNL1        0.0290
     31 H           2.7914   -0.5223    0.0000 H       1  UNL1        0.0290
     32 H           5.8342    1.6849    0.0000 H       1  UNL1        0.0272
     33 H           5.4431    0.9890    0.0000 H       1  UNL1        0.0272
     34 H           5.8222    0.5630    0.0000 H       1  UNL1        0.0235
     35 H           5.2022    1.1830    0.0000 H       1  UNL1        0.0235
     36 H           4.5822    0.5630    0.0000 H       1  UNL1        0.0235
     37 H           3.2778   -2.5397    0.0000 H       1  UNL1        0.0236
     38 H           3.5146   -3.3839    0.0000 H       1  UNL1        0.0236
     39 H           4.3588   -3.1472    0.0000 H       1  UNL1        0.0236
     40 H           4.2850   -3.1481    0.0000 H       1  UNL1        0.0236
     41 H           5.1344   -3.3652    0.0000 H       1  UNL1        0.0236
     42 H           5.3516   -2.5157    0.0000 H       1  UNL1        0.0236
     43 H           7.3475    2.1082    0.0000 H       1  UNL1        0.0277
     44 H           6.5493    2.1051    0.0000 H       1  UNL1        0.0277
     45 H           8.3776   -0.2464    0.0000 H       1  UNL1        0.0584
     46 H           2.0000   -1.6533    0.0000 H       1  UNL1        0.2098
     47 H           8.8499    0.4876    0.0000 H       1  UNL1        0.0241
     48 H           9.4723    1.1052    0.0000 H       1  UNL1        0.0241
     49 H           8.8547    1.7276    0.0000 H       1  UNL1        0.0241
     50 H           8.9756    1.9731    0.0000 H       1  UNL1        0.0575
     51 H           8.1710    3.3792    0.0000 H       1  UNL1        0.0532
     52 H           7.2390    2.8458    0.0000 H       1  UNL1        0.0532
@<TRIPOS>BOND
     1     8     1    1
     2     1    46    1
     3     2    14    2
     4     3     4    1
     5     3     6    1
     6     3     7    1
     7     3    13    1
     8     4     5    1
     9     4     9    1
    10     4    23    1
    11     5     8    1
    12     5    15    1
    13     5    16    1
    14     6    11    1
    15     6    12    1
    16     6    24    1
    17     7    10    1
    18     7    25    1
    19     7    26    1
    20     8    10    1
    21     8    27    1
    22     9    14    1
    23     9    28    1
    24     9    29    1
    25    10    30    1
    26    10    31    1
    27    11    14    1
    28    11    19    2
    29    12    17    1
    30    12    32    1
    31    12    33    1
    32    13    34    1
    33    13    35    1
    34    13    36    1
    35    15    37    1
    36    15    38    1
    37    15    39    1
    38    16    40    1
    39    16    41    1
    40    16    42    1
    41    17    18    1
    42    17    43    1
    43    17    44    1
    44    18    19    1
    45    18    20    1
    46    18    21    1
    47    19    45    1
    48    20    47    1
    49    20    48    1
    50    20    49    1
    51    21    22    2
    52    21    50    1
    53    22    51    1
    54    22    52    1
