@<TRIPOS>MOLECULE
IMPHY017214
 30 29 0 0 0
SMALL
GASTEIGER

@<TRIPOS>ATOM
      1 C           5.4641    0.2500    0.0000 C.3     1  UNL1       -0.0313
      2 C           4.5981   -0.2500    0.0000 C.3     1  UNL1       -0.0313
      3 C           6.3301   -0.2500    0.0000 C.2     1  UNL1       -0.0874
      4 C           3.7320    0.2500    0.0000 C.2     1  UNL1       -0.0879
      5 C           7.1962    0.2500    0.0000 C.2     1  UNL1       -0.0842
      6 C           8.0622   -0.2500    0.0000 C.3     1  UNL1       -0.0163
      7 C           2.8660   -0.2500    0.0000 C.2     1  UNL1       -0.0910
      8 C           8.9282    0.2500    0.0000 C.2     1  UNL1       -0.0803
      9 C           2.0000    0.2500    0.0000 C.3     1  UNL1       -0.0468
     10 C           9.7942   -0.2500    0.0000 C.2     1  UNL1       -0.0659
     11 C          10.6603    0.2500    0.0000 C.2     1  UNL1       -0.0692
     12 C          11.5263   -0.2500    0.0000 C.2     1  UNL1       -0.0987
     13 H           5.8626    0.7249    0.0000 H       1  UNL1        0.0310
     14 H           5.0656    0.7249    0.0000 H       1  UNL1        0.0310
     15 H           4.1996   -0.7249    0.0000 H       1  UNL1        0.0310
     16 H           4.9966   -0.7249    0.0000 H       1  UNL1        0.0310
     17 H           6.3301   -0.8700    0.0000 H       1  UNL1        0.0569
     18 H           3.7320    0.8700    0.0000 H       1  UNL1        0.0569
     19 H           7.1962    0.8700    0.0000 H       1  UNL1        0.0572
     20 H           7.6636   -0.7249    0.0000 H       1  UNL1        0.0350
     21 H           8.4607   -0.7249    0.0000 H       1  UNL1        0.0350
     22 H           2.8660   -0.8700    0.0000 H       1  UNL1        0.0566
     23 H           8.9282    0.8700    0.0000 H       1  UNL1        0.0575
     24 H           2.3100    0.7869    0.0000 H       1  UNL1        0.0272
     25 H           1.4631    0.5600    0.0000 H       1  UNL1        0.0272
     26 H           1.6900   -0.2869    0.0000 H       1  UNL1        0.0272
     27 H           9.7942   -0.8700    0.0000 H       1  UNL1        0.0614
     28 H          10.6603    0.8700    0.0000 H       1  UNL1        0.0612
     29 H          11.5263   -0.8700    0.0000 H       1  UNL1        0.0535
     30 H          12.0632    0.0600    0.0000 H       1  UNL1        0.0535
@<TRIPOS>BOND
     1     1     2    1
     2     1     3    1
     3     1    13    1
     4     1    14    1
     5     2     4    1
     6     2    15    1
     7     2    16    1
     8     3     5    2
     9     3    17    1
    10     4     7    2
    11     4    18    1
    12     5     6    1
    13     5    19    1
    14     6     8    1
    15     6    20    1
    16     6    21    1
    17     7     9    1
    18     7    22    1
    19     8    10    2
    20     8    23    1
    21     9    24    1
    22     9    25    1
    23     9    26    1
    24    10    11    1
    25    10    27    1
    26    11    12    2
    27    11    28    1
    28    12    29    1
    29    12    30    1
