@<TRIPOS>MOLECULE
IMPHY013869
 58 61 0 0 0
SMALL
GASTEIGER

@<TRIPOS>ATOM
      1 O           6.2758    0.3943    0.0000 O.3     1  UNL1       -0.4842
      2 O           2.6747    0.6212    0.0000 O.3     1  UNL1       -0.5056
      3 O           4.2467   -2.6338    0.0000 O.3     1  UNL1       -0.5051
      4 O           7.0132   -1.2537    0.0000 O.2     1  UNL1       -0.2918
      5 O           2.4391   -2.4615    0.0000 O.2     1  UNL1       -0.2955
      6 C           7.5534    2.3001    0.0000 C.3     1  UNL1        0.0046
      7 C           8.9524    2.3089    0.0000 C.3     1  UNL1       -0.0256
      8 C           7.8123    3.2660    0.0000 C.3     1  UNL1       -0.0347
      9 C           6.3324    1.4344    0.0000 C.3     1  UNL1        0.1143
     10 C           7.0756    4.2486    0.0000 C.3     1  UNL1       -0.0427
     11 C           5.5034    1.9936    0.0000 C.3     1  UNL1        0.0034
     12 C           5.7790    2.9549    0.0000 C.3     1  UNL1       -0.0429
     13 C           9.8184    2.8089    0.0000 C.3     1  UNL1       -0.0592
     14 C           9.4524    1.4429    0.0000 C.3     1  UNL1       -0.0592
     15 C           4.5602    1.5515    0.0000 C.3     1  UNL1       -0.0142
     16 C           7.1615    0.8752    0.0000 C.3     1  UNL1       -0.0244
     17 C           4.4796    0.5130    0.0000 C.ar    1  UNL1        0.0377
     18 C           5.3431   -0.0695    0.0000 C.ar    1  UNL1        0.1420
     19 C           3.4972    0.0524    0.0000 C.ar    1  UNL1        0.1372
     20 C           5.2841   -1.1529    0.0000 C.ar    1  UNL1        0.1015
     21 C           3.4131   -1.0293    0.0000 C.ar    1  UNL1        0.0980
     22 C           4.3126   -1.6360    0.0000 C.ar    1  UNL1        0.1446
     23 C           6.1196   -1.7024    0.0000 C.2     1  UNL1        0.1705
     24 C           6.0614   -2.7008    0.0000 C.3     1  UNL1        0.0130
     25 C           2.5127   -1.4642    0.0000 C.2     1  UNL1        0.1573
     26 C           6.8968   -3.2503    0.0000 C.3     1  UNL1       -0.0397
     27 C           6.8386   -4.2486    0.0000 C.3     1  UNL1       -0.0623
     28 C           7.7905   -2.8016    0.0000 C.3     1  UNL1       -0.0623
     29 H           7.9346    2.7891    0.0000 H       1  UNL1        0.0345
     30 H           8.0323    4.0870    0.0000 H       1  UNL1        0.0306
     31 H           7.3934    4.7810    0.0000 H       1  UNL1        0.0272
     32 H           6.4625    4.3406    0.0000 H       1  UNL1        0.0272
     33 H           4.7987    2.4689    0.0000 H       1  UNL1        0.0343
     34 H           5.7740    3.5749    0.0000 H       1  UNL1        0.0272
     35 H           5.1647    3.0387    0.0000 H       1  UNL1        0.0272
     36 H          10.1284    2.2720    0.0000 H       1  UNL1        0.0235
     37 H          10.3553    3.1189    0.0000 H       1  UNL1        0.0235
     38 H           9.5084    3.3458    0.0000 H       1  UNL1        0.0235
     39 H           8.9154    1.1329    0.0000 H       1  UNL1        0.0235
     40 H           9.7624    0.9059    0.0000 H       1  UNL1        0.0235
     41 H           9.9893    1.7529    0.0000 H       1  UNL1        0.0235
     42 H           4.3970    2.1496    0.0000 H       1  UNL1        0.0319
     43 H           3.9430    1.4930    0.0000 H       1  UNL1        0.0319
     44 H           6.8148    0.3612    0.0000 H       1  UNL1        0.0268
     45 H           7.6755    0.5285    0.0000 H       1  UNL1        0.0268
     46 H           7.5082    1.3892    0.0000 H       1  UNL1        0.0268
     47 H           2.7250    1.2391    0.0000 H       1  UNL1        0.2922
     48 H           5.4581   -2.5577    0.0000 H       1  UNL1        0.0348
     49 H           5.8158   -3.2700    0.0000 H       1  UNL1        0.0348
     50 H           2.0000   -1.1155    0.0000 H       1  UNL1        0.1084
     51 H           3.6905   -2.9078    0.0000 H       1  UNL1        0.2922
     52 H           7.4148   -3.5911    0.0000 H       1  UNL1        0.0300
     53 H           6.2196   -4.2125    0.0000 H       1  UNL1        0.0232
     54 H           6.8025   -4.8676    0.0000 H       1  UNL1        0.0232
     55 H           7.4575   -4.2847    0.0000 H       1  UNL1        0.0232
     56 H           8.0687   -3.3557    0.0000 H       1  UNL1        0.0232
     57 H           8.3446   -2.5234    0.0000 H       1  UNL1        0.0232
     58 H           7.5123   -2.2475    0.0000 H       1  UNL1        0.0232
@<TRIPOS>BOND
     1     1     9    1
     2     1    18    1
     3     2    19    1
     4     2    47    1
     5     3    22    1
     6     3    51    1
     7     4    23    2
     8     5    25    2
     9     6     7    1
    10     6     9    1
    11     6    10    1
    12     6    29    1
    13     7     8    1
    14     7    13    1
    15     7    14    1
    16     8    10    1
    17     8    12    1
    18     8    30    1
    19     9    11    1
    20     9    16    1
    21    10    31    1
    22    10    32    1
    23    11    12    1
    24    11    15    1
    25    11    33    1
    26    12    34    1
    27    12    35    1
    28    13    36    1
    29    13    37    1
    30    13    38    1
    31    14    39    1
    32    14    40    1
    33    14    41    1
    34    15    17    1
    35    15    42    1
    36    15    43    1
    37    16    44    1
    38    16    45    1
    39    16    46    1
    40    17    18   ar
    41    17    19   ar
    42    18    20   ar
    43    19    21   ar
    44    20    22   ar
    45    20    23    1
    46    21    22   ar
    47    21    25    1
    48    23    24    1
    49    24    26    1
    50    24    48    1
    51    24    49    1
    52    25    50    1
    53    26    27    1
    54    26    28    1
    55    26    52    1
    56    27    53    1
    57    27    54    1
    58    27    55    1
    59    28    56    1
    60    28    57    1
    61    28    58    1
