@<TRIPOS>MOLECULE
IMPHY002619
 71 75 0 0 0
SMALL
GASTEIGER

@<TRIPOS>ATOM
      1 O           8.7325    0.3431    0.0000 O.3     1  UNL1       -0.3849
      2 O           3.8674   -4.1499    0.0000 O.3     1  UNL1       -0.3832
      3 O           7.4248    2.3485    0.0000 O.3     1  UNL1       -0.4549
      4 O           2.9755   -0.5445    0.0000 O.2     1  UNL1       -0.2920
      5 O           7.0677    4.0434    0.0000 O.2     1  UNL1       -0.2453
      6 C           6.5251   -0.6015    0.0000 C.3     1  UNL1       -0.0231
      7 C           6.5251   -1.6015    0.0000 C.3     1  UNL1       -0.0287
      8 C           7.4714   -0.2968    0.0000 C.3     1  UNL1       -0.0032
      9 C           5.6591   -2.1015    0.0000 C.3     1  UNL1       -0.0157
     10 C           4.7931   -1.6015    0.0000 C.3     1  UNL1       -0.0191
     11 C           5.6591   -0.1015    0.0000 C.3     1  UNL1       -0.0467
     12 C           7.4714   -1.9063    0.0000 C.3     1  UNL1       -0.0488
     13 C           8.0550   -1.1015    0.0000 C.3     1  UNL1       -0.0467
     14 C           4.7931   -0.6015    0.0000 C.3     1  UNL1       -0.0482
     15 C           3.8831   -2.1084    0.0000 C.3     1  UNL1        0.0660
     16 C           7.7820    0.6537    0.0000 C.3     1  UNL1        0.1036
     17 C           6.5251    0.3985    0.0000 C.3     1  UNL1       -0.0589
     18 C           3.8751   -3.1500    0.0000 C.3     1  UNL1        0.1001
     19 C           5.6752   -3.1430    0.0000 C.2     1  UNL1       -0.0816
     20 C           4.7771   -3.6708    0.0000 C.2     1  UNL1       -0.0553
     21 C           8.0927    1.6042    0.0000 C.3     1  UNL1        0.1355
     22 C           3.8908   -1.1084    0.0000 C.3     1  UNL1       -0.0492
     23 C           2.9562   -1.5443    0.0000 C.2     1  UNL1        0.1650
     24 C           2.9396   -3.6997    0.0000 C.3     1  UNL1       -0.0008
     25 C           6.8315    0.9644    0.0000 C.3     1  UNL1       -0.0323
     26 C           9.0712    1.8105    0.0000 C.3     1  UNL1        0.0088
     27 C           2.0084   -2.0722    0.0000 C.2     1  UNL1       -0.0224
     28 C           2.0000   -3.1572    0.0000 C.2     1  UNL1       -0.0777
     29 C           9.3818    2.7610    0.0000 C.2     1  UNL1       -0.0594
     30 C           7.7355    3.2991    0.0000 C.2     1  UNL1        0.3352
     31 C           8.7140    3.5053    0.0000 C.2     1  UNL1        0.0326
     32 C          10.3604    2.9672    0.0000 C.3     1  UNL1       -0.0429
     33 C           9.0247    4.4558    0.0000 C.3     1  UNL1       -0.0330
     34 H           6.6151   -2.4468    0.0000 H       1  UNL1        0.0312
     35 H           8.3111   -0.1649    0.0000 H       1  UNL1        0.0335
     36 H           6.3985   -2.5208    0.0000 H       1  UNL1        0.0349
     37 H           5.5292   -1.1765    0.0000 H       1  UNL1        0.0317
     38 H           6.0576    0.3734    0.0000 H       1  UNL1        0.0271
     39 H           5.2606    0.3734    0.0000 H       1  UNL1        0.0271
     40 H           7.2203   -2.4732    0.0000 H       1  UNL1        0.0268
     41 H           8.0087   -2.2155    0.0000 H       1  UNL1        0.0268
     42 H           8.5158   -1.5163    0.0000 H       1  UNL1        0.0269
     43 H           8.5158   -0.6868    0.0000 H       1  UNL1        0.0269
     44 H           4.5810   -0.0189    0.0000 H       1  UNL1        0.0269
     45 H           4.1825   -0.7092    0.0000 H       1  UNL1        0.0269
     46 H           7.1451    0.3985    0.0000 H       1  UNL1        0.0235
     47 H           6.5251    1.0185    0.0000 H       1  UNL1        0.0235
     48 H           5.9051    0.3985    0.0000 H       1  UNL1        0.0235
     49 H           6.2157   -3.4468    0.0000 H       1  UNL1        0.0573
     50 H           4.7795   -4.2908    0.0000 H       1  UNL1        0.0598
     51 H           7.2610    1.4290    0.0000 H       1  UNL1        0.0766
     52 H           4.5108   -1.1132    0.0000 H       1  UNL1        0.0240
     53 H           3.8956   -0.4884    0.0000 H       1  UNL1        0.0240
     54 H           3.2708   -1.1036    0.0000 H       1  UNL1        0.0240
     55 H           2.5423   -4.1757    0.0000 H       1  UNL1        0.0339
     56 H           3.3406   -4.1726    0.0000 H       1  UNL1        0.0339
     57 H           7.0241    1.5537    0.0000 H       1  UNL1        0.0259
     58 H           6.2422    1.1570    0.0000 H       1  UNL1        0.0259
     59 H           6.6389    0.3751    0.0000 H       1  UNL1        0.0259
     60 H           8.8604   -0.2636    0.0000 H       1  UNL1        0.2103
     61 H           9.0918    1.1908    0.0000 H       1  UNL1        0.0347
     62 H           9.6850    1.7231    0.0000 H       1  UNL1        0.0347
     63 H           3.3280   -4.4558    0.0000 H       1  UNL1        0.2106
     64 H           1.4750   -1.7561    0.0000 H       1  UNL1        0.0649
     65 H           1.4619   -3.4651    0.0000 H       1  UNL1        0.0574
     66 H          10.4882    2.3605    0.0000 H       1  UNL1        0.0275
     67 H          10.9670    3.0950    0.0000 H       1  UNL1        0.0275
     68 H          10.2325    3.5739    0.0000 H       1  UNL1        0.0275
     69 H           9.6140    4.2632    0.0000 H       1  UNL1        0.0280
     70 H           9.2173    5.0451    0.0000 H       1  UNL1        0.0280
     71 H           8.4354    4.6484    0.0000 H       1  UNL1        0.0280
@<TRIPOS>BOND
     1    16     1    1
     2     1    60    1
     3    18     2    1
     4     2    63    1
     5     3    21    1
     6     3    30    1
     7     4    23    2
     8     5    30    2
     9     6     7    1
    10     6     8    1
    11     6    11    1
    12     6    17    1
    13     7     9    1
    14     7    12    1
    15     7    34    1
    16     8    13    1
    17     8    16    1
    18     8    35    1
    19     9    10    1
    20     9    19    1
    21     9    36    1
    22    10    14    1
    23    10    15    1
    24    10    37    1
    25    11    14    1
    26    11    38    1
    27    11    39    1
    28    12    13    1
    29    12    40    1
    30    12    41    1
    31    13    42    1
    32    13    43    1
    33    14    44    1
    34    14    45    1
    35    15    18    1
    36    15    22    1
    37    15    23    1
    38    16    21    1
    39    16    25    1
    40    17    46    1
    41    17    47    1
    42    17    48    1
    43    18    20    1
    44    18    24    1
    45    19    20    2
    46    19    49    1
    47    20    50    1
    48    21    26    1
    49    21    51    1
    50    22    52    1
    51    22    53    1
    52    22    54    1
    53    23    27    1
    54    24    28    1
    55    24    55    1
    56    24    56    1
    57    25    57    1
    58    25    58    1
    59    25    59    1
    60    26    29    1
    61    26    61    1
    62    26    62    1
    63    27    28    2
    64    27    64    1
    65    28    65    1
    66    29    31    2
    67    29    32    1
    68    30    31    1
    69    31    33    1
    70    32    66    1
    71    32    67    1
    72    32    68    1
    73    33    69    1
    74    33    70    1
    75    33    71    1
