@<TRIPOS>MOLECULE
IMPHY012386
 24 24 0 0 0
SMALL
GASTEIGER

@<TRIPOS>ATOM
      1 O           2.0000    0.2694    0.0000 O.3     1  UNL1       -0.3871
      2 O           3.3660   -2.7694    0.0000 O.2     1  UNL1       -0.4707
      3 O           5.4641    1.2694    0.0000 O.2     1  UNL1       -0.2977
      4 C           3.7320    0.2694    0.0000 C.3     1  UNL1       -0.0159
      5 C           2.8660   -0.2306    0.0000 C.3     1  UNL1        0.0835
      6 C           3.7320    1.2694    0.0000 C.3     1  UNL1        0.0082
      7 C           2.8660   -1.2306    0.0000 C.ar    1  UNL1        0.0185
      8 C           4.5981    1.7694    0.0000 C.2     1  UNL1        0.1304
      9 C           2.0570   -1.8184    0.0000 C.ar    1  UNL1       -0.0183
     10 C           3.6750   -1.8184    0.0000 C.ar    1  UNL1        0.0973
     11 C           2.3660   -2.7694    0.0000 C.ar    1  UNL1        0.0920
     12 C           4.5981    2.7694    0.0000 C.3     1  UNL1       -0.0061
     13 H           3.9441   -0.3132    0.0000 H       1  UNL1        0.0297
     14 H           4.3426    0.3771    0.0000 H       1  UNL1        0.0297
     15 H           2.8660    0.3894    0.0000 H       1  UNL1        0.0644
     16 H           3.5200    1.8520    0.0000 H       1  UNL1        0.0342
     17 H           3.1215    1.1618    0.0000 H       1  UNL1        0.0342
     18 H           1.4674   -1.6268    0.0000 H       1  UNL1        0.0652
     19 H           4.2647   -1.6268    0.0000 H       1  UNL1        0.1033
     20 H           2.0000    0.8894    0.0000 H       1  UNL1        0.2102
     21 H           2.0016   -3.2710    0.0000 H       1  UNL1        0.1029
     22 H           5.2181    2.7694    0.0000 H       1  UNL1        0.0306
     23 H           4.5981    3.3894    0.0000 H       1  UNL1        0.0306
     24 H           3.9781    2.7694    0.0000 H       1  UNL1        0.0306
@<TRIPOS>BOND
     1     1     5    1
     2     1    20    1
     3     2    10   ar
     4     2    11   ar
     5     3     8    2
     6     4     5    1
     7     4     6    1
     8     4    13    1
     9     4    14    1
    10     5     7    1
    11     5    15    1
    12     6     8    1
    13     6    16    1
    14     6    17    1
    15     7     9   ar
    16     7    10   ar
    17     8    12    1
    18     9    11   ar
    19     9    18    1
    20    10    19    1
    21    11    21    1
    22    12    22    1
    23    12    23    1
    24    12    24    1
