@<TRIPOS>MOLECULE
IMPHY010674
 99 101 0 0 0
SMALL
GASTEIGER

@<TRIPOS>ATOM
      1 O           8.3593   10.6540    0.0000 O.3     1  UNL1       -0.3626
      2 O           5.5690    7.7899    0.0000 O.3     1  UNL1       -0.3856
      3 O           4.8822  -10.2156    0.0000 O.3     1  UNL1       -0.3914
      4 C           7.8815    8.7054    0.0000 C.3     1  UNL1        0.1217
      5 C           9.2542    8.1134    0.0000 C.3     1  UNL1        0.0028
      6 C           6.4825    8.1966    0.0000 C.3     1  UNL1        0.0985
      7 C           7.6226    9.6714    0.0000 C.3     1  UNL1        0.0633
      8 C           9.5962    9.0531    0.0000 C.3     1  UNL1       -0.0183
      9 C           6.2237    9.1625    0.0000 C.3     1  UNL1        0.0052
     10 C          10.1288    7.6286    0.0000 C.3     1  UNL1       -0.0567
     11 C           9.5798    7.1679    0.0000 C.3     1  UNL1       -0.0567
     12 C           8.1403    7.7395    0.0000 C.2     1  UNL1       -0.0491
     13 C           6.2405    7.2263    0.0000 C.3     1  UNL1       -0.0329
     14 C           7.4332    7.0324    0.0000 C.2     1  UNL1       -0.0600
     15 C           7.6920    6.0665    0.0000 C.2     1  UNL1       -0.0507
     16 C           8.6579    5.8076    0.0000 C.3     1  UNL1       -0.0397
     17 C           6.9849    5.3594    0.0000 C.2     1  UNL1       -0.0588
     18 C           7.2437    4.3934    0.0000 C.2     1  UNL1       -0.0613
     19 C           3.3986   -8.0249    0.0000 C.3     1  UNL1       -0.0076
     20 C           3.6574   -8.9908    0.0000 C.3     1  UNL1       -0.0174
     21 C           4.6233   -9.2496    0.0000 C.3     1  UNL1        0.0597
     22 C           4.1057   -7.3178    0.0000 C.2     1  UNL1       -0.0426
     23 C           5.3304   -8.5425    0.0000 C.3     1  UNL1       -0.0053
     24 C           5.0716   -7.5766    0.0000 C.2     1  UNL1       -0.0665
     25 C           6.5366    3.6863    0.0000 C.2     1  UNL1       -0.0588
     26 C           2.4327   -8.2837    0.0000 C.3     1  UNL1       -0.0557
     27 C           2.6915   -7.3178    0.0000 C.3     1  UNL1       -0.0557
     28 C           3.8469   -6.3519    0.0000 C.2     1  UNL1       -0.0579
     29 C           5.7787   -6.8695    0.0000 C.3     1  UNL1       -0.0431
     30 C           6.7954    2.7204    0.0000 C.2     1  UNL1       -0.0504
     31 C           4.5540   -5.6448    0.0000 C.2     1  UNL1       -0.0586
     32 C           7.7614    2.4616    0.0000 C.3     1  UNL1       -0.0397
     33 C           6.0883    2.0133    0.0000 C.2     1  UNL1       -0.0588
     34 C           4.2952   -4.6788    0.0000 C.2     1  UNL1       -0.0504
     35 C           3.3292   -4.4200    0.0000 C.3     1  UNL1       -0.0397
     36 C           6.3471    1.0474    0.0000 C.2     1  UNL1       -0.0615
     37 C           5.0023   -3.9717    0.0000 C.2     1  UNL1       -0.0588
     38 C           4.7435   -3.0058    0.0000 C.2     1  UNL1       -0.0613
     39 C           5.6400    0.3403    0.0000 C.2     1  UNL1       -0.0615
     40 C           5.4506   -2.2987    0.0000 C.2     1  UNL1       -0.0588
     41 C           5.8989   -0.6257    0.0000 C.2     1  UNL1       -0.0588
     42 C           5.1918   -1.3328    0.0000 C.2     1  UNL1       -0.0504
     43 C           4.2258   -1.0740    0.0000 C.3     1  UNL1       -0.0397
     44 H           7.4027   10.4924    0.0000 H       1  UNL1        0.0597
     45 H           9.7905    9.6419    0.0000 H       1  UNL1        0.0296
     46 H          10.1820    8.8499    0.0000 H       1  UNL1        0.0296
     47 H           5.6297    8.9848    0.0000 H       1  UNL1        0.0319
     48 H           6.0288    9.7511    0.0000 H       1  UNL1        0.0319
     49 H          10.4294    8.1709    0.0000 H       1  UNL1        0.0236
     50 H          10.6711    7.3280    0.0000 H       1  UNL1        0.0236
     51 H           9.8282    7.0863    0.0000 H       1  UNL1        0.0236
     52 H          10.1660    7.3698    0.0000 H       1  UNL1        0.0236
     53 H           9.7816    6.5817    0.0000 H       1  UNL1        0.0236
     54 H           8.9935    6.9660    0.0000 H       1  UNL1        0.0236
     55 H           8.5788    7.3012    0.0000 H       1  UNL1        0.0602
     56 H           6.8421    7.0763    0.0000 H       1  UNL1        0.0258
     57 H           6.0905    6.6248    0.0000 H       1  UNL1        0.0258
     58 H           5.6390    7.3764    0.0000 H       1  UNL1        0.0258
     59 H           5.0674    8.1543    0.0000 H       1  UNL1        0.2103
     60 H           6.8155    6.9784    0.0000 H       1  UNL1        0.0618
     61 H           8.8184    6.4065    0.0000 H       1  UNL1        0.0278
     62 H           9.2568    5.6472    0.0000 H       1  UNL1        0.0278
     63 H           8.4975    5.2088    0.0000 H       1  UNL1        0.0278
     64 H           6.3860    5.5198    0.0000 H       1  UNL1        0.0620
     65 H           7.8426    4.2330    0.0000 H       1  UNL1        0.0618
     66 H           3.6034   -9.6085    0.0000 H       1  UNL1        0.0298
     67 H           3.0398   -9.0449    0.0000 H       1  UNL1        0.0298
     68 H           5.2222   -9.4101    0.0000 H       1  UNL1        0.0596
     69 H           5.8924   -8.2805    0.0000 H       1  UNL1        0.0335
     70 H           5.6861   -9.0504    0.0000 H       1  UNL1        0.0335
     71 H           5.9377    3.8468    0.0000 H       1  UNL1        0.0620
     72 H           2.5931   -8.8826    0.0000 H       1  UNL1        0.0238
     73 H           1.8338   -8.4442    0.0000 H       1  UNL1        0.0238
     74 H           2.2722   -7.6848    0.0000 H       1  UNL1        0.0238
     75 H           2.2531   -7.7562    0.0000 H       1  UNL1        0.0238
     76 H           2.2531   -6.8794    0.0000 H       1  UNL1        0.0238
     77 H           3.1299   -6.8794    0.0000 H       1  UNL1        0.0238
     78 H           3.2480   -6.1914    0.0000 H       1  UNL1        0.0621
     79 H           5.3403   -6.4311    0.0000 H       1  UNL1        0.0275
     80 H           6.2171   -6.4311    0.0000 H       1  UNL1        0.0275
     81 H           6.2171   -7.3079    0.0000 H       1  UNL1        0.0275
     82 H           4.4438  -10.6540    0.0000 H       1  UNL1        0.2098
     83 H           5.1529   -5.8052    0.0000 H       1  UNL1        0.0620
     84 H           7.9218    3.0605    0.0000 H       1  UNL1        0.0278
     85 H           8.3602    2.3011    0.0000 H       1  UNL1        0.0278
     86 H           7.6009    1.8627    0.0000 H       1  UNL1        0.0278
     87 H           5.4894    2.1738    0.0000 H       1  UNL1        0.0620
     88 H           3.1688   -5.0189    0.0000 H       1  UNL1        0.0278
     89 H           2.7304   -4.2595    0.0000 H       1  UNL1        0.0278
     90 H           3.4897   -3.8211    0.0000 H       1  UNL1        0.0278
     91 H           5.6011   -4.1322    0.0000 H       1  UNL1        0.0620
     92 H           6.9460    0.8869    0.0000 H       1  UNL1        0.0618
     93 H           4.1446   -2.8453    0.0000 H       1  UNL1        0.0618
     94 H           5.0412    0.5007    0.0000 H       1  UNL1        0.0618
     95 H           6.0494   -2.4592    0.0000 H       1  UNL1        0.0620
     96 H           6.4977   -0.7861    0.0000 H       1  UNL1        0.0620
     97 H           4.0653   -1.6728    0.0000 H       1  UNL1        0.0278
     98 H           3.6270   -0.9135    0.0000 H       1  UNL1        0.0278
     99 H           4.3863   -0.4751    0.0000 H       1  UNL1        0.0278
@<TRIPOS>BOND
     1     1     4    1
     2     1     7    1
     3     6     2    1
     4     2    59    1
     5    21     3    1
     6     3    82    1
     7     4     5    1
     8     4     6    1
     9     4    12    1
    10     5     8    1
    11     5    10    1
    12     5    11    1
    13     6     9    1
    14     6    13    1
    15     7     8    1
    16     7     9    1
    17     7    44    1
    18     8    45    1
    19     8    46    1
    20     9    47    1
    21     9    48    1
    22    10    49    1
    23    10    50    1
    24    10    51    1
    25    11    52    1
    26    11    53    1
    27    11    54    1
    28    12    14    2
    29    12    55    1
    30    13    56    1
    31    13    57    1
    32    13    58    1
    33    14    15    1
    34    14    60    1
    35    15    16    1
    36    15    17    2
    37    16    61    1
    38    16    62    1
    39    16    63    1
    40    17    18    1
    41    17    64    1
    42    18    25    2
    43    18    65    1
    44    19    20    1
    45    19    22    1
    46    19    26    1
    47    19    27    1
    48    20    21    1
    49    20    66    1
    50    20    67    1
    51    21    23    1
    52    21    68    1
    53    22    24    2
    54    22    28    1
    55    23    24    1
    56    23    69    1
    57    23    70    1
    58    24    29    1
    59    25    30    1
    60    25    71    1
    61    26    72    1
    62    26    73    1
    63    26    74    1
    64    27    75    1
    65    27    76    1
    66    27    77    1
    67    28    31    2
    68    28    78    1
    69    29    79    1
    70    29    80    1
    71    29    81    1
    72    30    32    1
    73    30    33    2
    74    31    34    1
    75    31    83    1
    76    32    84    1
    77    32    85    1
    78    32    86    1
    79    33    36    1
    80    33    87    1
    81    34    35    1
    82    34    37    2
    83    35    88    1
    84    35    89    1
    85    35    90    1
    86    36    39    2
    87    36    92    1
    88    37    38    1
    89    37    91    1
    90    38    40    2
    91    38    93    1
    92    39    41    1
    93    39    94    1
    94    40    42    1
    95    40    95    1
    96    41    42    2
    97    41    96    1
    98    42    43    1
    99    43    97    1
   100    43    98    1
   101    43    99    1
