@<TRIPOS>MOLECULE
IMPHY011387
 68 73 0 0 0
SMALL
GASTEIGER

@<TRIPOS>ATOM
      1 O           5.8723   -1.2331    0.0000 O.3     1  UNL1       -0.3555
      2 O           4.8614   -1.6005    0.0000 O.3     1  UNL1       -0.4609
      3 O           8.3077   -2.5068    0.0000 O.2     1  UNL1       -0.2939
      4 O          10.5940    0.2798    0.0000 O.2     1  UNL1       -0.4707
      5 O           2.1359    3.0785    0.0000 O.2     1  UNL1       -0.2921
      6 O           3.1295   -1.6205    0.0000 O.2     1  UNL1       -0.2512
      7 C           6.6098   -0.5659    0.0000 C.3     1  UNL1        0.1186
      8 C           5.7438   -0.0659    0.0000 C.3     1  UNL1        0.0409
      9 C           7.4758   -0.0659    0.0000 C.3     1  UNL1        0.0142
     10 C           6.8190   -1.5377    0.0000 C.3     1  UNL1        0.1478
     11 C           5.7438    0.9341    0.0000 C.3     1  UNL1       -0.0204
     12 C           4.8498    1.4688    0.0000 C.3     1  UNL1       -0.0063
     13 C           8.2129   -0.7330    0.0000 C.3     1  UNL1        0.0563
     14 C           7.4758    0.9341    0.0000 C.3     1  UNL1       -0.0436
     15 C           4.8498   -0.6006    0.0000 C.3     1  UNL1        0.1117
     16 C           6.6098    1.4341    0.0000 C.3     1  UNL1       -0.0481
     17 C           3.9438    0.9549    0.0000 C.3     1  UNL1       -0.0164
     18 C           7.8077   -1.6408    0.0000 C.2     1  UNL1        0.1727
     19 C           3.9438   -0.0867    0.0000 C.3     1  UNL1       -0.0105
     20 C           5.4019   -1.0056    0.0000 C.3     1  UNL1       -0.0531
     21 C           8.3419    0.4341    0.0000 C.3     1  UNL1       -0.0559
     22 C           3.0000    1.4902    0.0000 C.3     1  UNL1        0.0311
     23 C           5.7197    1.9621    0.0000 C.3     1  UNL1       -0.0555
     24 C           4.8749    2.5535    0.0000 C.2     1  UNL1       -0.0742
     25 C           9.1914   -0.5268    0.0000 C.ar    1  UNL1        0.0012
     26 C           3.0000    2.5752    0.0000 C.2     1  UNL1        0.1617
     27 C           3.9438    3.1104    0.0000 C.2     1  UNL1       -0.0221
     28 C           2.0000    1.4863    0.0000 C.3     1  UNL1       -0.0525
     29 C           2.5033    0.6222    0.0000 C.3     1  UNL1       -0.0525
     30 C           9.9334   -1.1972    0.0000 C.ar    1  UNL1       -0.0201
     31 C           9.5997    0.3861    0.0000 C.ar    1  UNL1        0.0955
     32 C           4.0012   -2.1105    0.0000 C.2     1  UNL1        0.3042
     33 C          10.8002   -0.6987    0.0000 C.ar    1  UNL1        0.0920
     34 C           4.0128   -3.1104    0.0000 C.3     1  UNL1        0.0332
     35 H           6.6438   -2.3695    0.0000 H       1  UNL1        0.0706
     36 H           6.4799    0.5091    0.0000 H       1  UNL1        0.0316
     37 H           8.6024   -1.2153    0.0000 H       1  UNL1        0.0434
     38 H           8.0864    0.8264    0.0000 H       1  UNL1        0.0272
     39 H           7.6879    1.5167    0.0000 H       1  UNL1        0.0272
     40 H           4.3159   -0.9157    0.0000 H       1  UNL1        0.0740
     41 H           7.0083    1.9091    0.0000 H       1  UNL1        0.0269
     42 H           6.2113    1.9091    0.0000 H       1  UNL1        0.0269
     43 H           3.2093    0.5271    0.0000 H       1  UNL1        0.0320
     44 H           3.3329    0.0194    0.0000 H       1  UNL1        0.0304
     45 H           3.7347   -0.6704    0.0000 H       1  UNL1        0.0304
     46 H           4.8192   -0.7936    0.0000 H       1  UNL1        0.0237
     47 H           5.1899   -1.5882    0.0000 H       1  UNL1        0.0237
     48 H           5.9845   -1.2176    0.0000 H       1  UNL1        0.0237
     49 H           8.6519   -0.1028    0.0000 H       1  UNL1        0.0236
     50 H           8.8788    0.7441    0.0000 H       1  UNL1        0.0236
     51 H           8.0319    0.9710    0.0000 H       1  UNL1        0.0236
     52 H           6.0256    1.4228    0.0000 H       1  UNL1        0.0238
     53 H           6.2590    2.2679    0.0000 H       1  UNL1        0.0238
     54 H           5.4138    2.5014    0.0000 H       1  UNL1        0.0238
     55 H           5.4178    2.8531    0.0000 H       1  UNL1        0.0579
     56 H           3.9510    3.7304    0.0000 H       1  UNL1        0.0649
     57 H           1.9652    0.9301    0.0000 H       1  UNL1        0.0239
     58 H           2.1954    0.0841    0.0000 H       1  UNL1        0.0239
     59 H           3.0415    0.3143    0.0000 H       1  UNL1        0.0239
     60 H           1.9976    2.1063    0.0000 H       1  UNL1        0.0239
     61 H           1.3800    1.4839    0.0000 H       1  UNL1        0.0239
     62 H           2.0024    0.8663    0.0000 H       1  UNL1        0.0239
     63 H           9.8675   -1.8137    0.0000 H       1  UNL1        0.0652
     64 H           9.2906    0.9236    0.0000 H       1  UNL1        0.1032
     65 H          11.3662   -0.9518    0.0000 H       1  UNL1        0.1029
     66 H           3.3928   -3.1176    0.0000 H       1  UNL1        0.0342
     67 H           4.0200   -3.7304    0.0000 H       1  UNL1        0.0342
     68 H           4.6328   -3.1032    0.0000 H       1  UNL1        0.0342
@<TRIPOS>BOND
     1     7     1    1
     2     1    10    1
     3    15     2    1
     4     2    32    1
     5     3    18    2
     6     4    31   ar
     7     4    33   ar
     8     5    26    2
     9     6    32    2
    10     7     8    1
    11     7     9    1
    12     7    10    1
    13     8    11    1
    14     8    15    1
    15     8    20    1
    16     9    13    1
    17     9    14    1
    18     9    21    1
    19    10    18    1
    20    10    35    1
    21    11    12    1
    22    11    16    1
    23    11    36    1
    24    12    17    1
    25    12    23    1
    26    12    24    1
    27    13    18    1
    28    13    25    1
    29    13    37    1
    30    14    16    1
    31    14    38    1
    32    14    39    1
    33    15    19    1
    34    15    40    1
    35    16    41    1
    36    16    42    1
    37    17    19    1
    38    17    22    1
    39    17    43    1
    40    19    44    1
    41    19    45    1
    42    20    46    1
    43    20    47    1
    44    20    48    1
    45    21    49    1
    46    21    50    1
    47    21    51    1
    48    22    26    1
    49    22    28    1
    50    22    29    1
    51    23    52    1
    52    23    53    1
    53    23    54    1
    54    24    27    2
    55    24    55    1
    56    25    30   ar
    57    25    31   ar
    58    26    27    1
    59    27    56    1
    60    28    60    1
    61    28    61    1
    62    28    62    1
    63    29    57    1
    64    29    58    1
    65    29    59    1
    66    30    33   ar
    67    30    63    1
    68    31    64    1
    69    32    34    1
    70    33    65    1
    71    34    66    1
    72    34    67    1
    73    34    68    1
