@<TRIPOS>MOLECULE
IMPHY014030
 36 37 0 0 0
SMALL
GASTEIGER

@<TRIPOS>ATOM
      1 O           3.8794   -0.5757    0.0000 O.3     1  UNL1       -0.4611
      2 O           4.4718   -2.2033    0.0000 O.2     1  UNL1       -0.2505
      3 N           6.3913    2.0213    0.0000 N.3     1  UNL1       -0.2992
      4 C           6.8691    0.0728    0.0000 C.3     1  UNL1        0.0138
      5 C           7.1280    1.0387    0.0000 C.3     1  UNL1        0.0138
      6 C           8.2681   -0.4360    0.0000 C.3     1  UNL1       -0.0358
      7 C           8.5269    0.5299    0.0000 C.3     1  UNL1       -0.0358
      8 C           5.6481   -0.7929    0.0000 C.3     1  UNL1        0.0000
      9 C           5.0947    0.7276    0.0000 C.3     1  UNL1        0.0000
     10 C           4.8191   -0.2337    0.0000 C.3     1  UNL1        0.1059
     11 C           5.8913    2.8873    0.0000 C.3     1  UNL1       -0.0122
     12 C           3.7057   -1.5605    0.0000 C.2     1  UNL1        0.3099
     13 C           2.7660   -1.9025    0.0000 C.3     1  UNL1        0.0508
     14 C           2.5924   -2.8873    0.0000 C.3     1  UNL1       -0.0525
     15 C           2.0000   -1.2598    0.0000 C.3     1  UNL1       -0.0525
     16 H           6.6491   -0.7483    0.0000 H       1  UNL1        0.0464
     17 H           7.3480    1.8597    0.0000 H       1  UNL1        0.0464
     18 H           8.0732   -1.0246    0.0000 H       1  UNL1        0.0281
     19 H           8.8620   -0.6138    0.0000 H       1  UNL1        0.0281
     20 H           9.1209    0.3521    0.0000 H       1  UNL1        0.0281
     21 H           8.7218    1.1184    0.0000 H       1  UNL1        0.0281
     22 H           5.2423   -1.2616    0.0000 H       1  UNL1        0.0316
     23 H           6.0648   -1.2520    0.0000 H       1  UNL1        0.0316
     24 H           5.0897    1.3476    0.0000 H       1  UNL1        0.0316
     25 H           4.4804    0.8114    0.0000 H       1  UNL1        0.0316
     26 H           4.7435   -0.8491    0.0000 H       1  UNL1        0.0735
     27 H           6.4283    3.1973    0.0000 H       1  UNL1        0.0391
     28 H           5.5813    3.4243    0.0000 H       1  UNL1        0.0391
     29 H           5.3544    2.5773    0.0000 H       1  UNL1        0.0391
     30 H           2.1834   -2.1146    0.0000 H       1  UNL1        0.0408
     31 H           1.9818   -2.7797    0.0000 H       1  UNL1        0.0237
     32 H           2.4847   -3.4979    0.0000 H       1  UNL1        0.0237
     33 H           3.2030   -2.9950    0.0000 H       1  UNL1        0.0237
     34 H           2.3985   -0.7848    0.0000 H       1  UNL1        0.0237
     35 H           1.5250   -0.8612    0.0000 H       1  UNL1        0.0237
     36 H           1.6015   -1.7347    0.0000 H       1  UNL1        0.0237
@<TRIPOS>BOND
     1     1    10    1
     2     1    12    1
     3     2    12    2
     4     3     4    1
     5     3     5    1
     6     3    11    1
     7     4     6    1
     8     4     8    1
     9     4    16    1
    10     5     7    1
    11     5     9    1
    12     5    17    1
    13     6     7    1
    14     6    18    1
    15     6    19    1
    16     7    20    1
    17     7    21    1
    18     8    10    1
    19     8    22    1
    20     8    23    1
    21     9    10    1
    22     9    24    1
    23     9    25    1
    24    10    26    1
    25    11    27    1
    26    11    28    1
    27    11    29    1
    28    12    13    1
    29    13    14    1
    30    13    15    1
    31    13    30    1
    32    14    31    1
    33    14    32    1
    34    14    33    1
    35    15    34    1
    36    15    35    1
    37    15    36    1
