@<TRIPOS>MOLECULE
IMPHY005860
 45 47 0 0 0
SMALL
GASTEIGER

@<TRIPOS>ATOM
      1 O           5.5301    1.2500    0.0000 O.2     1  UNL1       -0.4508
      2 O           8.1282   -1.2500    0.0000 O.3     1  UNL1       -0.4843
      3 O           7.2622    3.2500    0.0000 O.3     1  UNL1       -0.5007
      4 O           5.5301    4.2500    0.0000 O.2     1  UNL1       -0.2831
      5 O           2.0000    3.2742    0.0000 O.3     1  UNL1       -0.5033
      6 O           2.0000    1.2259    0.0000 O.3     1  UNL1       -0.5032
      7 O           9.8602   -0.2500    0.0000 O.3     1  UNL1       -0.5033
      8 C           6.3961    1.7500    0.0000 C.ar    1  UNL1        0.1807
      9 C           4.6641    2.7500    0.0000 C.ar    1  UNL1        0.0714
     10 C           7.2622    1.2500    0.0000 C.ar    1  UNL1        0.0247
     11 C           4.6641    1.7500    0.0000 C.ar    1  UNL1        0.1432
     12 C           6.3961    2.7500    0.0000 C.ar    1  UNL1        0.2081
     13 C           5.5301    3.2500    0.0000 C.ar    1  UNL1        0.2345
     14 C           7.2622    0.2500    0.0000 C.ar    1  UNL1       -0.0055
     15 C           3.7702    3.2847    0.0000 C.ar    1  UNL1       -0.0021
     16 C           8.1282   -0.2500    0.0000 C.ar    1  UNL1        0.1628
     17 C           3.7702    1.2153    0.0000 C.ar    1  UNL1        0.0265
     18 C           8.1282    1.7500    0.0000 C.ar    1  UNL1       -0.0473
     19 C           2.8641    2.7708    0.0000 C.ar    1  UNL1        0.1591
     20 C           2.8641    1.7292    0.0000 C.ar    1  UNL1        0.1618
     21 C           8.9942    0.2500    0.0000 C.ar    1  UNL1        0.1585
     22 C           8.9942    1.2500    0.0000 C.ar    1  UNL1       -0.0159
     23 C           8.9942   -1.7500    0.0000 C.3     1  UNL1        0.1082
     24 C           8.9942   -2.7500    0.0000 C.2     1  UNL1       -0.0484
     25 C           9.8602   -3.2500    0.0000 C.2     1  UNL1       -0.0765
     26 C           9.8602   -4.2500    0.0000 C.3     1  UNL1       -0.0439
     27 C          10.7263   -2.7500    0.0000 C.3     1  UNL1       -0.0439
     28 H           6.7252   -0.0600    0.0000 H       1  UNL1        0.0662
     29 H           3.7773    3.9046    0.0000 H       1  UNL1        0.0663
     30 H           8.1282    2.3700    0.0000 H       1  UNL1        0.0626
     31 H           3.7773    0.5954    0.0000 H       1  UNL1        0.0692
     32 H           9.5312    1.5600    0.0000 H       1  UNL1        0.0655
     33 H           9.6048   -1.8577    0.0000 H       1  UNL1        0.0742
     34 H           9.2063   -1.1674    0.0000 H       1  UNL1        0.0742
     35 H           8.4573   -3.0600    0.0000 H       1  UNL1        0.0605
     36 H           7.2622    3.8700    0.0000 H       1  UNL1        0.2924
     37 H           2.0024    3.8942    0.0000 H       1  UNL1        0.2923
     38 H           2.0024    0.6059    0.0000 H       1  UNL1        0.2923
     39 H          10.3972    0.0600    0.0000 H       1  UNL1        0.2923
     40 H           9.2402   -4.2500    0.0000 H       1  UNL1        0.0274
     41 H          11.0363   -3.2869    0.0000 H       1  UNL1        0.0274
     42 H          11.2632   -2.4400    0.0000 H       1  UNL1        0.0274
     43 H          10.4163   -2.2131    0.0000 H       1  UNL1        0.0274
     44 H           9.8602   -4.8700    0.0000 H       1  UNL1        0.0274
     45 H          10.4803   -4.2500    0.0000 H       1  UNL1        0.0274
@<TRIPOS>BOND
     1     1     8   ar
     2     1    11   ar
     3     2    16    1
     4     2    23    1
     5     3    12    1
     6     3    36    1
     7     4    13    2
     8     5    19    1
     9     5    37    1
    10     6    20    1
    11     6    38    1
    12     7    21    1
    13     7    39    1
    14     8    10    1
    15     8    12   ar
    16     9    11   ar
    17     9    13   ar
    18     9    15   ar
    19    10    14   ar
    20    10    18   ar
    21    11    17   ar
    22    12    13   ar
    23    14    16   ar
    24    14    28    1
    25    15    19   ar
    26    15    29    1
    27    16    21   ar
    28    17    20   ar
    29    17    31    1
    30    18    22   ar
    31    18    30    1
    32    19    20   ar
    33    21    22   ar
    34    22    32    1
    35    23    24    1
    36    23    33    1
    37    23    34    1
    38    24    25    2
    39    24    35    1
    40    25    26    1
    41    25    27    1
    42    26    40    1
    43    26    44    1
    44    26    45    1
    45    27    41    1
    46    27    42    1
    47    27    43    1
