@<TRIPOS>MOLECULE
IMPHY007336
 42 46 0 0 0
SMALL
GASTEIGER

@<TRIPOS>ATOM
      1 O           4.6929    0.0626    0.0000 O.3     1  UNL1       -0.4824
      2 O           3.3631    2.8136    0.0000 O.3     1  UNL1       -0.4907
      3 O           2.7210   -3.0718    0.0000 O.3     1  UNL1       -0.4815
      4 O           6.5283    4.6215    0.0000 O.3     1  UNL1       -0.5066
      5 C           3.3839    1.0136    0.0000 C.3     1  UNL1        0.0630
      6 C           4.3839    1.0136    0.0000 C.3     1  UNL1        0.1385
      7 C           3.0749    0.0626    0.0000 C.ar    1  UNL1        0.0053
      8 C           2.8492    1.9076    0.0000 C.3     1  UNL1        0.1002
      9 C           3.8839   -0.5252    0.0000 C.ar    1  UNL1        0.1357
     10 C           4.9185    1.9076    0.0000 C.ar    1  UNL1        0.0352
     11 C           3.7910   -1.5627    0.0000 C.ar    1  UNL1        0.0584
     12 C           4.4047    2.8136    0.0000 C.ar    1  UNL1        0.1307
     13 C           2.1169   -0.3464    0.0000 C.ar    1  UNL1       -0.0511
     14 C           2.8427   -1.9937    0.0000 C.ar    1  UNL1        0.1324
     15 C           3.5988   -3.7096    0.0000 C.3     1  UNL1        0.1235
     16 C           2.0000   -1.3814    0.0000 C.ar    1  UNL1       -0.0188
     17 C           6.0032    1.8825    0.0000 C.ar    1  UNL1       -0.0481
     18 C           4.6833   -2.1800    0.0000 C.2     1  UNL1       -0.0478
     19 C           4.5865   -3.2606    0.0000 C.2     1  UNL1       -0.0408
     20 C           4.9399    3.7574    0.0000 C.ar    1  UNL1        0.0219
     21 C           4.0090   -4.6215    0.0000 C.3     1  UNL1       -0.0215
     22 C           3.0141   -4.5208    0.0000 C.3     1  UNL1       -0.0215
     23 C           6.5602    2.8136    0.0000 C.ar    1  UNL1       -0.0196
     24 C           6.0249    3.7574    0.0000 C.ar    1  UNL1        0.1204
     25 H           2.5392    0.9183    0.0000 H       1  UNL1        0.0423
     26 H           5.2285    0.9183    0.0000 H       1  UNL1        0.0793
     27 H           2.3702    2.3012    0.0000 H       1  UNL1        0.0704
     28 H           2.3794    1.5030    0.0000 H       1  UNL1        0.0704
     29 H           1.6195    0.0238    0.0000 H       1  UNL1        0.0623
     30 H           1.4326   -1.6314    0.0000 H       1  UNL1        0.0654
     31 H           6.3028    1.3397    0.0000 H       1  UNL1        0.0624
     32 H           5.2447   -1.9169    0.0000 H       1  UNL1        0.0624
     33 H           5.0923   -3.6192    0.0000 H       1  UNL1        0.0611
     34 H           4.6279    4.2932    0.0000 H       1  UNL1        0.0691
     35 H           3.4436   -4.8759    0.0000 H       1  UNL1        0.0271
     36 H           4.2634   -5.1870    0.0000 H       1  UNL1        0.0271
     37 H           4.5744   -4.3672    0.0000 H       1  UNL1        0.0271
     38 H           2.5111   -4.1584    0.0000 H       1  UNL1        0.0271
     39 H           2.6516   -5.0238    0.0000 H       1  UNL1        0.0271
     40 H           3.5171   -4.8833    0.0000 H       1  UNL1        0.0271
     41 H           7.1801    2.8065    0.0000 H       1  UNL1        0.0654
     42 H           7.1482    4.6191    0.0000 H       1  UNL1        0.2921
@<TRIPOS>BOND
     1     1     6    1
     2     1     9    1
     3     2     8    1
     4     2    12    1
     5     3    14    1
     6     3    15    1
     7     4    24    1
     8     4    42    1
     9     5     6    1
    10     5     7    1
    11     5     8    1
    12     5    25    1
    13     6    10    1
    14     6    26    1
    15     7     9   ar
    16     7    13   ar
    17     8    27    1
    18     8    28    1
    19     9    11   ar
    20    10    12   ar
    21    10    17   ar
    22    11    14   ar
    23    11    18    1
    24    12    20   ar
    25    13    16   ar
    26    13    29    1
    27    14    16   ar
    28    15    19    1
    29    15    21    1
    30    15    22    1
    31    16    30    1
    32    17    23   ar
    33    17    31    1
    34    18    19    2
    35    18    32    1
    36    19    33    1
    37    20    24   ar
    38    20    34    1
    39    21    35    1
    40    21    36    1
    41    21    37    1
    42    22    38    1
    43    22    39    1
    44    22    40    1
    45    23    24   ar
    46    23    41    1
