@<TRIPOS>MOLECULE
IMPHY008779
 133 132 0 0 0
SMALL
GASTEIGER

@<TRIPOS>ATOM
      1 O           2.0000   10.1900    0.0000 O.3     1  UNL1       -0.3910
      2 C          14.9904    2.6900    0.0000 C.3     1  UNL1       -0.0286
      3 C          12.3923    4.1900    0.0000 C.3     1  UNL1       -0.0286
      4 C          17.5885    1.1900    0.0000 C.3     1  UNL1       -0.0286
      5 C          15.8564    2.1900    0.0000 C.3     1  UNL1       -0.0308
      6 C          13.2583    3.6900    0.0000 C.3     1  UNL1       -0.0308
      7 C          18.4545    0.6900    0.0000 C.3     1  UNL1       -0.0308
      8 C          19.3205   -1.8100    0.0000 C.3     1  UNL1       -0.0286
      9 C           9.7942    5.6900    0.0000 C.3     1  UNL1       -0.0286
     10 C          14.1244    2.1900    0.0000 C.2     1  UNL1       -0.0762
     11 C          10.6603    5.1900    0.0000 C.3     1  UNL1       -0.0308
     12 C          17.5885    2.1900    0.0000 C.2     1  UNL1       -0.0762
     13 C          12.3923    5.1900    0.0000 C.2     1  UNL1       -0.0762
     14 C          20.1865   -2.3100    0.0000 C.3     1  UNL1       -0.0308
     15 C          19.3205   -0.8100    0.0000 C.2     1  UNL1       -0.0762
     16 C           8.9282    5.1900    0.0000 C.2     1  UNL1       -0.0762
     17 C          13.2583    2.6900    0.0000 C.2     1  UNL1       -0.0847
     18 C          16.7224    2.6900    0.0000 C.2     1  UNL1       -0.0847
     19 C          18.4545   -0.3100    0.0000 C.2     1  UNL1       -0.0847
     20 C          11.5263    5.6900    0.0000 C.2     1  UNL1       -0.0847
     21 C          21.0526   -4.8100    0.0000 C.3     1  UNL1       -0.0286
     22 C           8.0622    6.6900    0.0000 C.3     1  UNL1       -0.0308
     23 C          21.0526   -3.8100    0.0000 C.2     1  UNL1       -0.0762
     24 C           7.1962    7.1900    0.0000 C.3     1  UNL1       -0.0286
     25 C          20.1865   -3.3100    0.0000 C.2     1  UNL1       -0.0847
     26 C          21.9186   -5.3100    0.0000 C.3     1  UNL1       -0.0308
     27 C           8.0622    5.6900    0.0000 C.2     1  UNL1       -0.0847
     28 C           7.1962    8.1900    0.0000 C.2     1  UNL1       -0.0762
     29 C          14.1244    1.1900    0.0000 C.3     1  UNL1       -0.0438
     30 C          18.4545    2.6900    0.0000 C.3     1  UNL1       -0.0438
     31 C          13.2583    5.6900    0.0000 C.3     1  UNL1       -0.0438
     32 C          20.1865   -0.3100    0.0000 C.3     1  UNL1       -0.0438
     33 C          21.9186   -6.3100    0.0000 C.2     1  UNL1       -0.0847
     34 C          22.7846   -6.8100    0.0000 C.2     1  UNL1       -0.0762
     35 C           8.9282    4.1900    0.0000 C.3     1  UNL1       -0.0438
     36 C          22.7846   -7.8100    0.0000 C.3     1  UNL1       -0.0286
     37 C           5.4641    8.1900    0.0000 C.3     1  UNL1       -0.0308
     38 C           6.3301    8.6900    0.0000 C.2     1  UNL1       -0.0847
     39 C          21.9186   -3.3100    0.0000 C.3     1  UNL1       -0.0438
     40 C           4.5981    8.6900    0.0000 C.3     1  UNL1       -0.0285
     41 C          23.6506   -8.3100    0.0000 C.3     1  UNL1       -0.0308
     42 C           8.0622    8.6900    0.0000 C.3     1  UNL1       -0.0438
     43 C          23.6506   -6.3100    0.0000 C.3     1  UNL1       -0.0438
     44 C           3.7320    8.1900    0.0000 C.2     1  UNL1       -0.0741
     45 C          23.6506   -9.3100    0.0000 C.2     1  UNL1       -0.0850
     46 C           3.7320    7.1900    0.0000 C.3     1  UNL1       -0.0437
     47 C          24.5167   -9.8100    0.0000 C.2     1  UNL1       -0.0796
     48 C           2.8660    8.6900    0.0000 C.2     1  UNL1       -0.0600
     49 C           2.8660    9.6900    0.0000 C.3     1  UNL1        0.0626
     50 C          24.5167  -10.8100    0.0000 C.3     1  UNL1       -0.0440
     51 C          25.3827   -9.3100    0.0000 C.3     1  UNL1       -0.0440
     52 H          15.3889    3.1650    0.0000 H       1  UNL1        0.0313
     53 H          14.5919    3.1650    0.0000 H       1  UNL1        0.0313
     54 H          11.7817    4.2977    0.0000 H       1  UNL1        0.0313
     55 H          12.1803    3.6074    0.0000 H       1  UNL1        0.0313
     56 H          16.9779    1.2977    0.0000 H       1  UNL1        0.0313
     57 H          17.3764    0.6074    0.0000 H       1  UNL1        0.0313
     58 H          15.4579    1.7150    0.0000 H       1  UNL1        0.0310
     59 H          16.2549    1.7150    0.0000 H       1  UNL1        0.0310
     60 H          13.8689    3.5823    0.0000 H       1  UNL1        0.0310
     61 H          13.4704    4.2726    0.0000 H       1  UNL1        0.0310
     62 H          19.0651    0.5823    0.0000 H       1  UNL1        0.0310
     63 H          18.6665    1.2726    0.0000 H       1  UNL1        0.0310
     64 H          18.7099   -1.7023    0.0000 H       1  UNL1        0.0313
     65 H          19.1085   -2.3926    0.0000 H       1  UNL1        0.0313
     66 H          10.1928    6.1650    0.0000 H       1  UNL1        0.0313
     67 H           9.3957    6.1650    0.0000 H       1  UNL1        0.0313
     68 H          10.2617    4.7150    0.0000 H       1  UNL1        0.0310
     69 H          11.0588    4.7150    0.0000 H       1  UNL1        0.0310
     70 H          20.7971   -2.4177    0.0000 H       1  UNL1        0.0310
     71 H          20.3986   -1.7274    0.0000 H       1  UNL1        0.0310
     72 H          12.7214    2.3800    0.0000 H       1  UNL1        0.0572
     73 H          16.7224    3.3100    0.0000 H       1  UNL1        0.0572
     74 H          17.9175   -0.6200    0.0000 H       1  UNL1        0.0572
     75 H          20.4420   -4.7023    0.0000 H       1  UNL1        0.0313
     76 H          20.8405   -5.3926    0.0000 H       1  UNL1        0.0313
     77 H          11.5263    6.3100    0.0000 H       1  UNL1        0.0572
     78 H           8.6728    6.5823    0.0000 H       1  UNL1        0.0310
     79 H           8.2742    7.2726    0.0000 H       1  UNL1        0.0310
     80 H           6.5856    7.2977    0.0000 H       1  UNL1        0.0313
     81 H           6.9841    6.6074    0.0000 H       1  UNL1        0.0313
     82 H          19.6496   -3.6200    0.0000 H       1  UNL1        0.0572
     83 H          22.5292   -5.4177    0.0000 H       1  UNL1        0.0310
     84 H          22.1306   -4.7274    0.0000 H       1  UNL1        0.0310
     85 H           7.5252    5.3800    0.0000 H       1  UNL1        0.0572
     86 H          13.5044    1.1900    0.0000 H       1  UNL1        0.0274
     87 H          14.1244    0.5700    0.0000 H       1  UNL1        0.0274
     88 H          14.7444    1.1900    0.0000 H       1  UNL1        0.0274
     89 H          18.7645    2.1531    0.0000 H       1  UNL1        0.0274
     90 H          18.9914    3.0000    0.0000 H       1  UNL1        0.0274
     91 H          18.1445    3.2269    0.0000 H       1  UNL1        0.0274
     92 H          13.5683    5.1531    0.0000 H       1  UNL1        0.0274
     93 H          13.7953    6.0000    0.0000 H       1  UNL1        0.0274
     94 H          12.9483    6.2269    0.0000 H       1  UNL1        0.0274
     95 H          20.4965   -0.8469    0.0000 H       1  UNL1        0.0274
     96 H          20.7235    0.0000    0.0000 H       1  UNL1        0.0274
     97 H          19.8765    0.2269    0.0000 H       1  UNL1        0.0274
     98 H          21.3816   -6.6200    0.0000 H       1  UNL1        0.0572
     99 H           8.3082    4.1900    0.0000 H       1  UNL1        0.0274
    100 H           8.9282    3.5700    0.0000 H       1  UNL1        0.0274
    101 H           9.5482    4.1900    0.0000 H       1  UNL1        0.0274
    102 H          22.1740   -7.7023    0.0000 H       1  UNL1        0.0313
    103 H          22.5726   -8.3926    0.0000 H       1  UNL1        0.0313
    104 H           5.0656    7.7150    0.0000 H       1  UNL1        0.0310
    105 H           5.8626    7.7150    0.0000 H       1  UNL1        0.0310
    106 H           6.3301    9.3100    0.0000 H       1  UNL1        0.0572
    107 H          22.2286   -3.8469    0.0000 H       1  UNL1        0.0274
    108 H          22.4555   -3.0000    0.0000 H       1  UNL1        0.0274
    109 H          21.6086   -2.7731    0.0000 H       1  UNL1        0.0274
    110 H           4.9966    9.1649    0.0000 H       1  UNL1        0.0313
    111 H           4.1996    9.1649    0.0000 H       1  UNL1        0.0313
    112 H          24.2612   -8.4177    0.0000 H       1  UNL1        0.0310
    113 H          23.8627   -7.7274    0.0000 H       1  UNL1        0.0310
    114 H           8.3722    8.1531    0.0000 H       1  UNL1        0.0274
    115 H           8.5991    9.0000    0.0000 H       1  UNL1        0.0274
    116 H           7.7522    9.2269    0.0000 H       1  UNL1        0.0274
    117 H          23.9606   -6.8469    0.0000 H       1  UNL1        0.0274
    118 H          24.1876   -6.0000    0.0000 H       1  UNL1        0.0274
    119 H          23.3406   -5.7731    0.0000 H       1  UNL1        0.0274
    120 H          23.1137   -9.6200    0.0000 H       1  UNL1        0.0572
    121 H           3.1120    7.1900    0.0000 H       1  UNL1        0.0274
    122 H           3.7320    6.5700    0.0000 H       1  UNL1        0.0274
    123 H           4.3520    7.1900    0.0000 H       1  UNL1        0.0274
    124 H           2.3291    8.3800    0.0000 H       1  UNL1        0.0594
    125 H           3.4766    9.5823    0.0000 H       1  UNL1        0.0601
    126 H           3.0781   10.2726    0.0000 H       1  UNL1        0.0601
    127 H          25.6927   -9.8469    0.0000 H       1  UNL1        0.0274
    128 H          25.9196   -9.0000    0.0000 H       1  UNL1        0.0274
    129 H          25.0727   -8.7731    0.0000 H       1  UNL1        0.0274
    130 H          23.8967  -10.8100    0.0000 H       1  UNL1        0.0274
    131 H          24.5167  -11.4300    0.0000 H       1  UNL1        0.0274
    132 H          25.1367  -10.8100    0.0000 H       1  UNL1        0.0274
    133 H           2.0000   10.8100    0.0000 H       1  UNL1        0.2098
@<TRIPOS>BOND
     1     1    49    1
     2     1   133    1
     3     2     5    1
     4     2    10    1
     5     2    52    1
     6     2    53    1
     7     3     6    1
     8     3    13    1
     9     3    54    1
    10     3    55    1
    11     4     7    1
    12     4    12    1
    13     4    56    1
    14     4    57    1
    15     5    18    1
    16     5    58    1
    17     5    59    1
    18     6    17    1
    19     6    60    1
    20     6    61    1
    21     7    19    1
    22     7    62    1
    23     7    63    1
    24     8    14    1
    25     8    15    1
    26     8    64    1
    27     8    65    1
    28     9    11    1
    29     9    16    1
    30     9    66    1
    31     9    67    1
    32    10    17    2
    33    10    29    1
    34    11    20    1
    35    11    68    1
    36    11    69    1
    37    12    18    2
    38    12    30    1
    39    13    20    2
    40    13    31    1
    41    14    25    1
    42    14    70    1
    43    14    71    1
    44    15    19    2
    45    15    32    1
    46    16    27    2
    47    16    35    1
    48    17    72    1
    49    18    73    1
    50    19    74    1
    51    20    77    1
    52    21    23    1
    53    21    26    1
    54    21    75    1
    55    21    76    1
    56    22    24    1
    57    22    27    1
    58    22    78    1
    59    22    79    1
    60    23    25    2
    61    23    39    1
    62    24    28    1
    63    24    80    1
    64    24    81    1
    65    25    82    1
    66    26    33    1
    67    26    83    1
    68    26    84    1
    69    27    85    1
    70    28    38    2
    71    28    42    1
    72    29    86    1
    73    29    87    1
    74    29    88    1
    75    30    89    1
    76    30    90    1
    77    30    91    1
    78    31    92    1
    79    31    93    1
    80    31    94    1
    81    32    95    1
    82    32    96    1
    83    32    97    1
    84    33    34    2
    85    33    98    1
    86    34    36    1
    87    34    43    1
    88    35    99    1
    89    35   100    1
    90    35   101    1
    91    36    41    1
    92    36   102    1
    93    36   103    1
    94    37    38    1
    95    37    40    1
    96    37   104    1
    97    37   105    1
    98    38   106    1
    99    39   107    1
   100    39   108    1
   101    39   109    1
   102    40    44    1
   103    40   110    1
   104    40   111    1
   105    41    45    1
   106    41   112    1
   107    41   113    1
   108    42   114    1
   109    42   115    1
   110    42   116    1
   111    43   117    1
   112    43   118    1
   113    43   119    1
   114    44    46    1
   115    44    48    2
   116    45    47    2
   117    45   120    1
   118    46   121    1
   119    46   122    1
   120    46   123    1
   121    47    50    1
   122    47    51    1
   123    48    49    1
   124    48   124    1
   125    49   125    1
   126    49   126    1
   127    50   130    1
   128    50   131    1
   129    50   132    1
   130    51   127    1
   131    51   128    1
   132    51   129    1
