@<TRIPOS>MOLECULE
IMPHY005580
 19 20 0 0 0
SMALL
GASTEIGER

@<TRIPOS>ATOM
      1 O           5.4920   -1.3797    0.0000 O.2     1  UNL1       -0.4625
      2 O           3.7320    1.6550    0.0000 O.3     1  UNL1       -0.5058
      3 O           2.0000   -1.3450    0.0000 O.3     1  UNL1       -0.5065
      4 O           5.4804    1.6896    0.0000 O.2     1  UNL1       -0.2869
      5 C           4.5981    0.1550    0.0000 C.ar    1  UNL1        0.1054
      6 C           4.5981   -0.8450    0.0000 C.ar    1  UNL1        0.1454
      7 C           3.7320    0.6550    0.0000 C.ar    1  UNL1        0.1347
      8 C           3.7320   -1.3450    0.0000 C.ar    1  UNL1        0.0231
      9 C           5.4920    0.6897    0.0000 C.ar    1  UNL1        0.1960
     10 C           2.8660    0.1550    0.0000 C.ar    1  UNL1        0.0223
     11 C           2.8660   -0.8450    0.0000 C.ar    1  UNL1        0.1239
     12 C           6.3981    0.1758    0.0000 C.ar    1  UNL1        0.0208
     13 C           6.3981   -0.8658    0.0000 C.ar    1  UNL1        0.0961
     14 H           3.7320   -1.9650    0.0000 H       1  UNL1        0.0691
     15 H           2.3291    0.4650    0.0000 H       1  UNL1        0.0691
     16 H           6.9338    0.4879    0.0000 H       1  UNL1        0.0687
     17 H           6.9338   -1.1779    0.0000 H       1  UNL1        0.1031
     18 H           3.1951    1.9650    0.0000 H       1  UNL1        0.2922
     19 H           2.0000   -1.9650    0.0000 H       1  UNL1        0.2921
@<TRIPOS>BOND
     1     1     6   ar
     2     1    13   ar
     3     2     7    1
     4     2    18    1
     5     3    11    1
     6     3    19    1
     7     4     9    2
     8     5     6   ar
     9     5     7   ar
    10     5     9   ar
    11     6     8   ar
    12     7    10   ar
    13     8    11   ar
    14     8    14    1
    15     9    12   ar
    16    10    11   ar
    17    10    15    1
    18    12    13   ar
    19    12    16    1
    20    13    17    1
