@<TRIPOS>MOLECULE
IMPHY008998
 24 26 0 0 0
SMALL
GASTEIGER

@<TRIPOS>ATOM
      1 C           3.8000   -0.2673    0.0000 C.ar    1  UNL1       -0.0102
      2 C           4.6660    0.2327    0.0000 C.ar    1  UNL1       -0.0102
      3 C           5.5321   -0.2673    0.0000 C.ar    1  UNL1       -0.0173
      4 C           3.8000   -1.2673    0.0000 C.ar    1  UNL1       -0.0173
      5 C           5.5321   -1.2673    0.0000 C.ar    1  UNL1       -0.0534
      6 C           4.6660   -1.7673    0.0000 C.ar    1  UNL1       -0.0534
      7 C           4.6500    1.2742    0.0000 C.ar    1  UNL1       -0.0534
      8 C           2.9061    0.2674    0.0000 C.ar    1  UNL1       -0.0534
      9 C           6.4421    0.2395    0.0000 C.ar    1  UNL1       -0.0540
     10 C           2.9061   -1.8020    0.0000 C.ar    1  UNL1       -0.0540
     11 C           5.5480    1.8020    0.0000 C.ar    1  UNL1       -0.0611
     12 C           2.0000   -0.2465    0.0000 C.ar    1  UNL1       -0.0611
     13 C           2.0000   -1.2881    0.0000 C.ar    1  UNL1       -0.0612
     14 C           6.4501    1.2812    0.0000 C.ar    1  UNL1       -0.0612
     15 H           6.0690   -1.5773    0.0000 H       1  UNL1        0.0624
     16 H           4.6660   -2.3873    0.0000 H       1  UNL1        0.0624
     17 H           4.1095    1.5780    0.0000 H       1  UNL1        0.0624
     18 H           2.9132    0.8873    0.0000 H       1  UNL1        0.0624
     19 H           6.9754   -0.0766    0.0000 H       1  UNL1        0.0624
     20 H           2.9132   -2.4219    0.0000 H       1  UNL1        0.0624
     21 H           5.5456    2.4220    0.0000 H       1  UNL1        0.0618
     22 H           1.4643    0.0656    0.0000 H       1  UNL1        0.0618
     23 H           6.9882    1.5891    0.0000 H       1  UNL1        0.0618
     24 H           1.4643   -1.6002    0.0000 H       1  UNL1        0.0618
@<TRIPOS>BOND
     1     1     2   ar
     2     1     4   ar
     3     1     8   ar
     4     2     3   ar
     5     2     7   ar
     6     3     5   ar
     7     3     9   ar
     8     4     6   ar
     9     4    10   ar
    10     5     6   ar
    11     5    15    1
    12     6    16    1
    13     7    11   ar
    14     7    17    1
    15     8    12   ar
    16     8    18    1
    17     9    14   ar
    18     9    19    1
    19    10    13   ar
    20    10    20    1
    21    11    14   ar
    22    11    21    1
    23    12    13   ar
    24    12    22    1
    25    13    24    1
    26    14    23    1
