@<TRIPOS>MOLECULE
IMPHY000860
 59 62 0 0 0
SMALL
GASTEIGER

@<TRIPOS>ATOM
      1 O           5.1724   -0.5101    0.0000 O.3     1  UNL1       -0.3663
      2 O           6.9323    1.5246    0.0000 O.3     1  UNL1       -0.4830
      3 O           2.5381   -1.0029    0.0000 O.3     1  UNL1       -0.3866
      4 O          10.5295    1.6023    0.0000 O.2     1  UNL1       -0.4218
      5 O          12.3374    1.5704    0.0000 O.2     1  UNL1       -0.2449
      6 C           6.0663    1.0246    0.0000 C.3     1  UNL1        0.1341
      7 C           6.0663    0.0246    0.0000 C.3     1  UNL1        0.1025
      8 C           5.1724    1.5592    0.0000 C.3     1  UNL1       -0.0083
      9 C           4.2663    0.0038    0.0000 C.3     1  UNL1        0.0874
     10 C           4.2663    1.0454    0.0000 C.3     1  UNL1       -0.0202
     11 C           6.9323   -0.4754    0.0000 C.3     1  UNL1        0.0059
     12 C           3.4022   -0.4996    0.0000 C.3     1  UNL1        0.0865
     13 C           6.0663    2.0246    0.0000 C.3     1  UNL1       -0.0224
     14 C           7.7984    0.0246    0.0000 C.ar    1  UNL1       -0.0023
     15 C           7.7984    1.0246    0.0000 C.ar    1  UNL1        0.1282
     16 C           2.8989    0.3645    0.0000 C.3     1  UNL1       -0.0339
     17 C           3.9056   -1.3637    0.0000 C.3     1  UNL1       -0.0339
     18 C           8.6923   -0.5101    0.0000 C.ar    1  UNL1       -0.0443
     19 C           8.6923    1.5592    0.0000 C.ar    1  UNL1        0.0234
     20 C           9.5984    0.0038    0.0000 C.ar    1  UNL1        0.0184
     21 C           9.5984    1.0454    0.0000 C.ar    1  UNL1        0.1426
     22 C          10.5295   -0.5532    0.0000 C.ar    1  UNL1       -0.0403
     23 C          11.4733   -0.0179    0.0000 C.ar    1  UNL1        0.0470
     24 C          12.3374   -0.5213    0.0000 C.3     1  UNL1        0.0146
     25 C          11.4733    1.0671    0.0000 C.ar    1  UNL1        0.3413
     26 C          11.8341   -1.3853    0.0000 C.3     1  UNL1       -0.0521
     27 C          12.8407    0.3428    0.0000 C.3     1  UNL1       -0.0521
     28 C          13.2015   -1.0246    0.0000 C.2     1  UNL1       -0.0809
     29 C          13.1977   -2.0246    0.0000 C.2     1  UNL1       -0.1018
     30 H           6.0729   -0.8254    0.0000 H       1  UNL1        0.0639
     31 H           5.5770    2.0290    0.0000 H       1  UNL1        0.0305
     32 H           4.7787    2.0383    0.0000 H       1  UNL1        0.0305
     33 H           4.2712   -0.8462    0.0000 H       1  UNL1        0.0624
     34 H           4.0572    1.6291    0.0000 H       1  UNL1        0.0292
     35 H           3.6554    0.9393    0.0000 H       1  UNL1        0.0292
     36 H           6.5338   -0.9504    0.0000 H       1  UNL1        0.0341
     37 H           7.3309   -0.9504    0.0000 H       1  UNL1        0.0341
     38 H           6.6863    2.0246    0.0000 H       1  UNL1        0.0269
     39 H           6.0663    2.6446    0.0000 H       1  UNL1        0.0269
     40 H           5.4463    2.0246    0.0000 H       1  UNL1        0.0269
     41 H           3.4346    0.6766    0.0000 H       1  UNL1        0.0258
     42 H           2.5868    0.9003    0.0000 H       1  UNL1        0.0258
     43 H           2.3632    0.0525    0.0000 H       1  UNL1        0.0258
     44 H           3.3698   -1.6757    0.0000 H       1  UNL1        0.0258
     45 H           4.2176   -1.8994    0.0000 H       1  UNL1        0.0258
     46 H           4.4413   -1.0516    0.0000 H       1  UNL1        0.0258
     47 H           8.6851   -1.1300    0.0000 H       1  UNL1        0.0628
     48 H           8.6851    2.1792    0.0000 H       1  UNL1        0.0691
     49 H           2.0000   -0.6950    0.0000 H       1  UNL1        0.2102
     50 H          10.5224   -1.1731    0.0000 H       1  UNL1        0.0630
     51 H          11.2983   -1.0733    0.0000 H       1  UNL1        0.0241
     52 H          11.5220   -1.9211    0.0000 H       1  UNL1        0.0241
     53 H          12.3698   -1.6974    0.0000 H       1  UNL1        0.0241
     54 H          13.3765    0.0308    0.0000 H       1  UNL1        0.0241
     55 H          13.1528    0.8786    0.0000 H       1  UNL1        0.0241
     56 H          12.3050    0.6549    0.0000 H       1  UNL1        0.0241
     57 H          13.7396   -0.7167    0.0000 H       1  UNL1        0.0575
     58 H          12.6595   -2.3325    0.0000 H       1  UNL1        0.0532
     59 H          13.7334   -2.3366    0.0000 H       1  UNL1        0.0532
@<TRIPOS>BOND
     1     1     7    1
     2     1     9    1
     3     2     6    1
     4     2    15    1
     5     3    12    1
     6     3    49    1
     7     4    21   ar
     8     4    25   ar
     9     5    25    2
    10     6     7    1
    11     6     8    1
    12     6    13    1
    13     7    11    1
    14     7    30    1
    15     8    10    1
    16     8    31    1
    17     8    32    1
    18     9    10    1
    19     9    12    1
    20     9    33    1
    21    10    34    1
    22    10    35    1
    23    11    14    1
    24    11    36    1
    25    11    37    1
    26    12    16    1
    27    12    17    1
    28    13    38    1
    29    13    39    1
    30    13    40    1
    31    14    15   ar
    32    14    18   ar
    33    15    19   ar
    34    16    41    1
    35    16    42    1
    36    16    43    1
    37    17    44    1
    38    17    45    1
    39    17    46    1
    40    18    20   ar
    41    18    47    1
    42    19    21   ar
    43    19    48    1
    44    20    21   ar
    45    20    22   ar
    46    22    23   ar
    47    22    50    1
    48    23    24    1
    49    23    25   ar
    50    24    26    1
    51    24    27    1
    52    24    28    1
    53    26    51    1
    54    26    52    1
    55    26    53    1
    56    27    54    1
    57    27    55    1
    58    27    56    1
    59    28    29    2
    60    28    57    1
    61    29    58    1
    62    29    59    1
