@<TRIPOS>MOLECULE
IMPHY006863
 83 88 0 0 0
SMALL
GASTEIGER

@<TRIPOS>ATOM
      1 O           6.9677    0.9634    0.0000 O.3     1  UNL1       -0.3680
      2 O           7.8471   -1.0468    0.0000 O.3     1  UNL1       -0.4562
      3 O           4.1952   -1.3144    0.0000 O.3     1  UNL1       -0.3760
      4 O           4.8816    3.4405    0.0000 O.3     1  UNL1       -0.4545
      5 O           2.4986    2.2784    0.0000 O.3     1  UNL1       -0.4606
      6 O           3.7041   -2.5370    0.0000 O.2     1  UNL1       -0.2939
      7 O           6.3155    4.3414    0.0000 O.2     1  UNL1       -0.2507
      8 O           8.3320   -4.3414    0.0000 O.2     1  UNL1       -0.4708
      9 O           2.0000    0.5799    0.0000 O.2     1  UNL1       -0.2508
     10 O           8.1352    0.6611    0.0000 O.2     1  UNL1       -0.2479
     11 O           9.8192   -1.3794    0.0000 O.3     1  UNL1       -0.3803
     12 C           5.3816    1.2498    0.0000 C.3     1  UNL1        0.0108
     13 C           5.5176    0.2651    0.0000 C.3     1  UNL1        0.0209
     14 C           6.1983   -1.6761    0.0000 C.3     1  UNL1        0.0541
     15 C           6.4959    0.0885    0.0000 C.3     1  UNL1        0.1037
     16 C           5.1793   -1.4921    0.0000 C.3     1  UNL1        0.1539
     17 C           6.8610   -0.8805    0.0000 C.3     1  UNL1        0.1389
     18 C           6.2826    1.6837    0.0000 C.3     1  UNL1        0.0756
     19 C           4.4807    1.6837    0.0000 C.3     1  UNL1        0.0204
     20 C           4.8367   -0.5149    0.0000 C.2     1  UNL1       -0.0314
     21 C           6.3347   -2.6963    0.0000 C.3     1  UNL1        0.0061
     22 C           4.2582    2.6586    0.0000 C.3     1  UNL1        0.1483
     23 C           5.4073   -3.1430    0.0000 C.3     1  UNL1        0.0167
     24 C           4.4807    0.8160    0.0000 C.3     1  UNL1       -0.0562
     25 C           4.6947   -2.4002    0.0000 C.2     1  UNL1        0.1700
     26 C           7.1824   -1.8538    0.0000 C.3     1  UNL1       -0.0521
     27 C           6.5051    2.6586    0.0000 C.3     1  UNL1        0.0717
     28 C           3.7281    0.9635    0.0000 C.3     1  UNL1        0.0521
     29 C           7.2149   -3.1710    0.0000 C.ar    1  UNL1       -0.0055
     30 C           3.2676    2.9810    0.0000 C.3     1  UNL1        0.1321
     31 C           3.8547   -0.3259    0.0000 C.2     1  UNL1       -0.0960
     32 C           5.8816    3.4405    0.0000 C.2     1  UNL1        0.3102
     33 C           4.0356    3.6336    0.0000 C.3     1  UNL1       -0.0213
     34 C           2.7304    1.2629    0.0000 C.2     1  UNL1        0.3076
     35 C           8.4842   -0.2760    0.0000 C.2     1  UNL1        0.3366
     36 C           8.1162   -2.7379    0.0000 C.ar    1  UNL1       -0.0205
     37 C           7.3482   -4.1620    0.0000 C.ar    1  UNL1        0.0951
     38 C           9.4702   -0.4423    0.0000 C.3     1  UNL1        0.1541
     39 C           8.8066   -3.4613    0.0000 C.ar    1  UNL1        0.0920
     40 C          10.1073    0.3285    0.0000 C.3     1  UNL1       -0.0076
     41 C          11.0934    0.1622    0.0000 C.3     1  UNL1       -0.0504
     42 C           9.7583    1.2656    0.0000 C.3     1  UNL1       -0.0595
     43 C          11.7304    0.9330    0.0000 C.3     1  UNL1       -0.0649
     44 H           4.7032    0.5083    0.0000 H       1  UNL1        0.0379
     45 H           7.3440    0.0315    0.0000 H       1  UNL1        0.0639
     46 H           7.2551   -0.4018    0.0000 H       1  UNL1        0.0767
     47 H           7.1023    1.9088    0.0000 H       1  UNL1        0.0607
     48 H           5.1452    2.2137    0.0000 H       1  UNL1        0.0352
     49 H           6.3205   -3.3162    0.0000 H       1  UNL1        0.0361
     50 H           4.9173   -3.5228    0.0000 H       1  UNL1        0.0349
     51 H           5.7335   -3.6702    0.0000 H       1  UNL1        0.0349
     52 H           4.2117    1.3746    0.0000 H       1  UNL1        0.0236
     53 H           3.9221    0.5469    0.0000 H       1  UNL1        0.0236
     54 H           4.7497    0.2574    0.0000 H       1  UNL1        0.0236
     55 H           7.0722   -2.4639    0.0000 H       1  UNL1        0.0238
     56 H           7.7925   -1.9640    0.0000 H       1  UNL1        0.0238
     57 H           7.2925   -1.2437    0.0000 H       1  UNL1        0.0238
     58 H           7.0637    2.3896    0.0000 H       1  UNL1        0.0403
     59 H           6.8917    3.1434    0.0000 H       1  UNL1        0.0403
     60 H           3.4510    0.4089    0.0000 H       1  UNL1        0.0382
     61 H           4.2271    0.5956    0.0000 H       1  UNL1        0.0382
     62 H           3.7947   -1.7877    0.0000 H       1  UNL1        0.2112
     63 H           3.5576    3.5290    0.0000 H       1  UNL1        0.0738
     64 H           2.7773    3.3604    0.0000 H       1  UNL1        0.0738
     65 H           3.6518    0.2600    0.0000 H       1  UNL1        0.0535
     66 H           3.4488   -0.7945    0.0000 H       1  UNL1        0.0535
     67 H           4.6401    3.7715    0.0000 H       1  UNL1        0.0269
     68 H           3.8977    4.2380    0.0000 H       1  UNL1        0.0269
     69 H           3.4312    3.4956    0.0000 H       1  UNL1        0.0269
     70 H           8.2274   -2.1279    0.0000 H       1  UNL1        0.0652
     71 H           6.8997   -4.5901    0.0000 H       1  UNL1        0.1032
     72 H           9.0752   -0.9202    0.0000 H       1  UNL1        0.0713
     73 H           9.4211   -3.3786    0.0000 H       1  UNL1        0.1029
     74 H           9.4959    0.4316    0.0000 H       1  UNL1        0.0328
     75 H          10.4306   -1.4826    0.0000 H       1  UNL1        0.2105
     76 H          10.8857   -0.4220    0.0000 H       1  UNL1        0.0266
     77 H          11.6326   -0.1438    0.0000 H       1  UNL1        0.0266
     78 H          10.3393    1.4820    0.0000 H       1  UNL1        0.0233
     79 H           9.5419    1.8466    0.0000 H       1  UNL1        0.0233
     80 H           9.1773    1.0492    0.0000 H       1  UNL1        0.0233
     81 H          12.2083    0.5380    0.0000 H       1  UNL1        0.0230
     82 H          12.1254    1.4109    0.0000 H       1  UNL1        0.0230
     83 H          11.2525    1.3280    0.0000 H       1  UNL1        0.0230
@<TRIPOS>BOND
     1     1    15    1
     2     1    18    1
     3    17     2    1
     4     2    35    1
     5    16     3    1
     6     3    62    1
     7     4    22    1
     8     4    32    1
     9     5    30    1
    10     5    34    1
    11     6    25    2
    12     7    32    2
    13     8    37   ar
    14     8    39   ar
    15     9    34    2
    16    10    35    2
    17    11    38    1
    18    11    75    1
    19    12    13    1
    20    12    18    1
    21    12    19    1
    22    12    24    1
    23    13    15    1
    24    13    20    1
    25    13    44    1
    26    14    16    1
    27    14    17    1
    28    14    21    1
    29    14    26    1
    30    15    17    1
    31    15    45    1
    32    16    20    1
    33    16    25    1
    34    17    46    1
    35    18    27    1
    36    18    47    1
    37    19    22    1
    38    19    28    1
    39    19    48    1
    40    20    31    2
    41    21    23    1
    42    21    29    1
    43    21    49    1
    44    22    30    1
    45    22    33    1
    46    23    25    1
    47    23    50    1
    48    23    51    1
    49    24    52    1
    50    24    53    1
    51    24    54    1
    52    26    55    1
    53    26    56    1
    54    26    57    1
    55    27    32    1
    56    27    58    1
    57    27    59    1
    58    28    34    1
    59    28    60    1
    60    28    61    1
    61    29    36   ar
    62    29    37   ar
    63    30    63    1
    64    30    64    1
    65    31    65    1
    66    31    66    1
    67    33    67    1
    68    33    68    1
    69    33    69    1
    70    35    38    1
    71    36    39   ar
    72    36    70    1
    73    37    71    1
    74    38    40    1
    75    38    72    1
    76    39    73    1
    77    40    41    1
    78    40    42    1
    79    40    74    1
    80    41    43    1
    81    41    76    1
    82    41    77    1
    83    42    78    1
    84    42    79    1
    85    42    80    1
    86    43    81    1
    87    43    82    1
    88    43    83    1
