@<TRIPOS>MOLECULE
IMPHY017365
 20 20 0 0 0
SMALL
GASTEIGER

@<TRIPOS>ATOM
      1 S           3.1235   -0.5953    0.0000 S.O     1  UNL1        0.0222
      2 O           3.1235   -1.5953    0.0000 O.2     1  UNL1       -0.2572
      3 C           2.6235    1.5953    0.0000 C.3     1  UNL1       -0.0522
      4 C           3.6235    1.5953    0.0000 C.3     1  UNL1       -0.0522
      5 C           2.0000    0.8135    0.0000 C.3     1  UNL1       -0.0417
      6 C           4.2470    0.8135    0.0000 C.3     1  UNL1       -0.0417
      7 C           2.2225   -0.1614    0.0000 C.3     1  UNL1        0.0234
      8 C           4.0245   -0.1614    0.0000 C.3     1  UNL1        0.0234
      9 H           2.7614    2.1998    0.0000 H       1  UNL1        0.0266
     10 H           2.0649    1.8643    0.0000 H       1  UNL1        0.0266
     11 H           4.1821    1.8643    0.0000 H       1  UNL1        0.0266
     12 H           3.4855    2.1998    0.0000 H       1  UNL1        0.0266
     13 H           1.6134    1.2982    0.0000 H       1  UNL1        0.0274
     14 H           1.4414    0.5445    0.0000 H       1  UNL1        0.0274
     15 H           4.8056    0.5445    0.0000 H       1  UNL1        0.0274
     16 H           4.6335    1.2982    0.0000 H       1  UNL1        0.0274
     17 H           1.6025   -0.1614    0.0000 H       1  UNL1        0.0401
     18 H           2.0846   -0.7659    0.0000 H       1  UNL1        0.0401
     19 H           4.1624   -0.7659    0.0000 H       1  UNL1        0.0401
     20 H           4.6445   -0.1614    0.0000 H       1  UNL1        0.0401
@<TRIPOS>BOND
     1     1     2    2
     2     1     7    1
     3     1     8    1
     4     3     4    1
     5     3     5    1
     6     3     9    1
     7     3    10    1
     8     4     6    1
     9     4    11    1
    10     4    12    1
    11     5     7    1
    12     5    13    1
    13     5    14    1
    14     6     8    1
    15     6    15    1
    16     6    16    1
    17     7    17    1
    18     7    18    1
    19     8    19    1
    20     8    20    1
