@<TRIPOS>MOLECULE
IMPHY016946
 29 28 0 0 0
SMALL
GASTEIGER

@<TRIPOS>ATOM
      1 O           7.1962    0.0000    0.0000 O.3     1  UNL1       -0.4677
      2 O           6.3301    1.5000    0.0000 O.2     1  UNL1       -0.2505
      3 C           5.4641    0.0000    0.0000 C.3     1  UNL1        0.0562
      4 C           4.5981    0.5000    0.0000 C.3     1  UNL1       -0.0401
      5 C           3.7320   -0.0000    0.0000 C.3     1  UNL1       -0.0526
      6 C           5.4641   -1.0000    0.0000 C.3     1  UNL1       -0.0430
      7 C           2.8660    0.5000    0.0000 C.3     1  UNL1       -0.0559
      8 C           6.3301    0.5000    0.0000 C.2     1  UNL1        0.3099
      9 C           4.5981   -1.5000    0.0000 C.3     1  UNL1       -0.0645
     10 C           2.0000   -0.0000    0.0000 C.3     1  UNL1       -0.0653
     11 C           8.0622    0.5000    0.0000 C.3     1  UNL1        0.0817
     12 H           5.4641    0.6200    0.0000 H       1  UNL1        0.0413
     13 H           4.9966    0.9749    0.0000 H       1  UNL1        0.0273
     14 H           4.1996    0.9749    0.0000 H       1  UNL1        0.0273
     15 H           3.3335   -0.4749    0.0000 H       1  UNL1        0.0265
     16 H           4.1306   -0.4749    0.0000 H       1  UNL1        0.0265
     17 H           5.6762   -1.5826    0.0000 H       1  UNL1        0.0270
     18 H           6.0747   -0.8923    0.0000 H       1  UNL1        0.0270
     19 H           3.2646    0.9749    0.0000 H       1  UNL1        0.0263
     20 H           2.4675    0.9749    0.0000 H       1  UNL1        0.0263
     21 H           4.2881   -0.9631    0.0000 H       1  UNL1        0.0230
     22 H           4.0611   -1.8100    0.0000 H       1  UNL1        0.0230
     23 H           4.9081   -2.0369    0.0000 H       1  UNL1        0.0230
     24 H           1.6900    0.5369    0.0000 H       1  UNL1        0.0230
     25 H           1.4631   -0.3100    0.0000 H       1  UNL1        0.0230
     26 H           2.3100   -0.5369    0.0000 H       1  UNL1        0.0230
     27 H           8.3722   -0.0369    0.0000 H       1  UNL1        0.0661
     28 H           8.5991    0.8100    0.0000 H       1  UNL1        0.0661
     29 H           7.7522    1.0369    0.0000 H       1  UNL1        0.0661
@<TRIPOS>BOND
     1     1     8    1
     2     1    11    1
     3     2     8    2
     4     3     4    1
     5     3     6    1
     6     3     8    1
     7     3    12    1
     8     4     5    1
     9     4    13    1
    10     4    14    1
    11     5     7    1
    12     5    15    1
    13     5    16    1
    14     6     9    1
    15     6    17    1
    16     6    18    1
    17     7    10    1
    18     7    19    1
    19     7    20    1
    20     9    21    1
    21     9    22    1
    22     9    23    1
    23    10    24    1
    24    10    25    1
    25    10    26    1
    26    11    27    1
    27    11    28    1
    28    11    29    1
