@<TRIPOS>MOLECULE
IMPHY001269
 41 45 0 0 0
SMALL
GASTEIGER

@<TRIPOS>ATOM
      1 O           8.9116    2.2348    0.0000 O.3     1  UNL1       -0.3877
      2 O           4.5112   -2.3449    0.0000 O.3     1  UNL1       -0.4910
      3 O           2.6079    0.5280    0.0000 O.3     1  UNL1       -0.4525
      4 O           2.6079   -1.1485    0.0000 O.3     1  UNL1       -0.4489
      5 N           7.1256   -0.8103    0.0000 N.3     1  UNL1       -0.2938
      6 C           6.2596    0.6897    0.0000 C.3     1  UNL1        0.0311
      7 C           7.1256    0.1897    0.0000 C.3     1  UNL1        0.0265
      8 C           6.1461    0.0861    0.0000 C.3     1  UNL1       -0.0256
      9 C           6.5462   -0.6067    0.0000 C.3     1  UNL1        0.0007
     10 C           5.3935    0.1897    0.0000 C.ar    1  UNL1       -0.0244
     11 C           8.0356    0.6966    0.0000 C.3     1  UNL1       -0.0065
     12 C           6.2596   -1.3103    0.0000 C.3     1  UNL1        0.0282
     13 C           6.2435    1.7312    0.0000 C.2     1  UNL1       -0.0736
     14 C           5.3935   -0.8103    0.0000 C.ar    1  UNL1        0.0162
     15 C           8.0436    1.7382    0.0000 C.3     1  UNL1        0.0748
     16 C           7.1415    2.2590    0.0000 C.2     1  UNL1       -0.0589
     17 C           4.4996    0.7244    0.0000 C.ar    1  UNL1       -0.0115
     18 C           4.4996   -1.3449    0.0000 C.ar    1  UNL1        0.1700
     19 C           3.5935    0.2106    0.0000 C.ar    1  UNL1        0.1702
     20 C           3.5935   -0.8311    0.0000 C.ar    1  UNL1        0.2078
     21 C           2.0000   -0.3103    0.0000 C.3     1  UNL1        0.2334
     22 C           3.6510   -2.8548    0.0000 C.3     1  UNL1        0.0790
     23 H           7.8617   -0.2353    0.0000 H       1  UNL1        0.0475
     24 H           5.5942    0.3685    0.0000 H       1  UNL1        0.0290
     25 H           5.7190   -0.3632    0.0000 H       1  UNL1        0.0290
     26 H           5.9434   -0.7519    0.0000 H       1  UNL1        0.0427
     27 H           6.5147   -1.2259    0.0000 H       1  UNL1        0.0427
     28 H           8.2401    0.1113    0.0000 H       1  UNL1        0.0309
     29 H           8.6472    0.7980    0.0000 H       1  UNL1        0.0309
     30 H           5.8610   -1.7852    0.0000 H       1  UNL1        0.0477
     31 H           6.6581   -1.7852    0.0000 H       1  UNL1        0.0477
     32 H           5.7030    2.0350    0.0000 H       1  UNL1        0.0579
     33 H           8.0448    2.3582    0.0000 H       1  UNL1        0.0638
     34 H           7.1391    2.8790    0.0000 H       1  UNL1        0.0595
     35 H           4.5068    1.3444    0.0000 H       1  UNL1        0.0658
     36 H           8.9139    2.8548    0.0000 H       1  UNL1        0.2102
     37 H           1.5391    0.1045    0.0000 H       1  UNL1        0.1166
     38 H           1.5391   -0.7250    0.0000 H       1  UNL1        0.1166
     39 H           3.3348   -2.3215    0.0000 H       1  UNL1        0.0660
     40 H           3.1176   -3.1710    0.0000 H       1  UNL1        0.0660
     41 H           3.9672   -3.3882    0.0000 H       1  UNL1        0.0660
@<TRIPOS>BOND
     1    15     1    1
     2     1    36    1
     3     2    18    1
     4     2    22    1
     5     3    19    1
     6     3    21    1
     7     4    20    1
     8     4    21    1
     9     5     7    1
    10     5     9    1
    11     5    12    1
    12     6     7    1
    13     6     8    1
    14     6    10    1
    15     6    13    1
    16     7    11    1
    17     7    23    1
    18     8     9    1
    19     8    24    1
    20     8    25    1
    21     9    26    1
    22     9    27    1
    23    10    14   ar
    24    10    17   ar
    25    11    15    1
    26    11    28    1
    27    11    29    1
    28    12    14    1
    29    12    30    1
    30    12    31    1
    31    13    16    2
    32    13    32    1
    33    14    18   ar
    34    15    16    1
    35    15    33    1
    36    16    34    1
    37    17    19   ar
    38    17    35    1
    39    18    20   ar
    40    19    20   ar
    41    21    37    1
    42    21    38    1
    43    22    39    1
    44    22    40    1
    45    22    41    1
