@<TRIPOS>MOLECULE
IMPHY005185
 71 75 0 0 0
SMALL
GASTEIGER

@<TRIPOS>ATOM
      1 O           6.5251   -1.3938    0.0000 O.3     1  UNL1       -0.3876
      2 O           7.1640    1.8625    0.0000 O.3     1  UNL1       -0.3875
      3 O          10.0043    1.6754    0.0000 O.3     1  UNL1       -0.4574
      4 O           2.9755    0.6632    0.0000 O.2     1  UNL1       -0.2918
      5 O          11.7271    1.8534    0.0000 O.2     1  UNL1       -0.2453
      6 C           6.5251    0.6062    0.0000 C.3     1  UNL1        0.0261
      7 C           6.5251   -0.3938    0.0000 C.3     1  UNL1        0.0775
      8 C           7.4714    0.9109    0.0000 C.3     1  UNL1        0.0801
      9 C           5.6591   -0.8938    0.0000 C.3     1  UNL1       -0.0041
     10 C           4.7931   -0.3938    0.0000 C.3     1  UNL1       -0.0191
     11 C           5.6591    1.1062    0.0000 C.3     1  UNL1       -0.0421
     12 C           7.4714   -0.6986    0.0000 C.3     1  UNL1       -0.0205
     13 C           8.0550    0.1062    0.0000 C.3     1  UNL1       -0.0204
     14 C           4.7931    0.6062    0.0000 C.3     1  UNL1       -0.0480
     15 C           3.8831   -0.9007    0.0000 C.3     1  UNL1        0.0545
     16 C           8.2814    1.4973    0.0000 C.3     1  UNL1        0.0231
     17 C           6.5251    1.6062    0.0000 C.3     1  UNL1       -0.0543
     18 C           5.6752   -1.9353    0.0000 C.3     1  UNL1       -0.0287
     19 C           3.8751   -1.9423    0.0000 C.2     1  UNL1       -0.0561
     20 C           4.7771   -2.4631    0.0000 C.2     1  UNL1       -0.0832
     21 C           9.1942    1.0890    0.0000 C.3     1  UNL1        0.1122
     22 C           3.8908    0.0993    0.0000 C.3     1  UNL1       -0.0485
     23 C           8.1786    2.4920    0.0000 C.3     1  UNL1       -0.0564
     24 C           2.9562   -0.3366    0.0000 C.2     1  UNL1        0.1659
     25 C           2.9396   -2.4920    0.0000 C.3     1  UNL1       -0.0122
     26 C           9.2970    0.0943    0.0000 C.3     1  UNL1        0.0064
     27 C           2.0084   -0.8645    0.0000 C.2     1  UNL1       -0.0220
     28 C           2.0000   -1.9495    0.0000 C.2     1  UNL1       -0.0767
     29 C          10.2099   -0.3140    0.0000 C.2     1  UNL1       -0.0595
     30 C          10.9171    1.2670    0.0000 C.2     1  UNL1        0.3351
     31 C          11.0199    0.2723    0.0000 C.2     1  UNL1        0.0326
     32 C          10.3127   -1.3087    0.0000 C.3     1  UNL1       -0.0429
     33 C          11.9328   -0.1360    0.0000 C.3     1  UNL1       -0.0330
     34 H           6.3985   -1.3131    0.0000 H       1  UNL1        0.0335
     35 H           5.5292    0.0312    0.0000 H       1  UNL1        0.0317
     36 H           6.0576    1.5811    0.0000 H       1  UNL1        0.0272
     37 H           5.2606    1.5811    0.0000 H       1  UNL1        0.0272
     38 H           7.2203   -1.2655    0.0000 H       1  UNL1        0.0294
     39 H           8.0087   -1.0078    0.0000 H       1  UNL1        0.0294
     40 H           8.5158   -0.3086    0.0000 H       1  UNL1        0.0294
     41 H           8.5158    0.5209    0.0000 H       1  UNL1        0.0294
     42 H           4.5810    1.1888    0.0000 H       1  UNL1        0.0269
     43 H           4.1825    0.4985    0.0000 H       1  UNL1        0.0269
     44 H           8.7836    1.8608    0.0000 H       1  UNL1        0.0362
     45 H           7.1451    1.6062    0.0000 H       1  UNL1        0.0237
     46 H           6.5251    2.2262    0.0000 H       1  UNL1        0.0237
     47 H           5.9051    1.6062    0.0000 H       1  UNL1        0.0237
     48 H           5.8932   -2.5157    0.0000 H       1  UNL1        0.0311
     49 H           6.2843   -1.8198    0.0000 H       1  UNL1        0.0311
     50 H           7.0621   -1.7038    0.0000 H       1  UNL1        0.2102
     51 H           4.7795   -3.0831    0.0000 H       1  UNL1        0.0572
     52 H           9.9702    0.7419    0.0000 H       1  UNL1        0.0741
     53 H           7.5796    2.3225    0.0000 H       1  UNL1        0.2102
     54 H           4.5108    0.0945    0.0000 H       1  UNL1        0.0242
     55 H           3.8956    0.7193    0.0000 H       1  UNL1        0.0242
     56 H           3.2708    0.1041    0.0000 H       1  UNL1        0.0242
     57 H           8.7953    2.5557    0.0000 H       1  UNL1        0.0234
     58 H           8.1148    3.1087    0.0000 H       1  UNL1        0.0234
     59 H           7.5619    2.4282    0.0000 H       1  UNL1        0.0234
     60 H           2.5423   -2.9680    0.0000 H       1  UNL1        0.0353
     61 H           3.3406   -2.9649    0.0000 H       1  UNL1        0.0353
     62 H           8.6786    0.1386    0.0000 H       1  UNL1        0.0346
     63 H           9.1460   -0.5070    0.0000 H       1  UNL1        0.0346
     64 H           1.4750   -0.5483    0.0000 H       1  UNL1        0.0649
     65 H           1.4619   -2.2574    0.0000 H       1  UNL1        0.0576
     66 H           9.6960   -1.3725    0.0000 H       1  UNL1        0.0275
     67 H          10.3764   -1.9255    0.0000 H       1  UNL1        0.0275
     68 H          10.9294   -1.2450    0.0000 H       1  UNL1        0.0275
     69 H          11.6796   -0.7019    0.0000 H       1  UNL1        0.0280
     70 H          12.4987   -0.3891    0.0000 H       1  UNL1        0.0280
     71 H          12.1859    0.4300    0.0000 H       1  UNL1        0.0280
@<TRIPOS>BOND
     1     7     1    1
     2     1    50    1
     3     8     2    1
     4     2    53    1
     5     3    21    1
     6     3    30    1
     7     4    24    2
     8     5    30    2
     9     6     7    1
    10     6     8    1
    11     6    11    1
    12     6    17    1
    13     7     9    1
    14     7    12    1
    15     8    13    1
    16     8    16    1
    17     9    10    1
    18     9    18    1
    19     9    34    1
    20    10    14    1
    21    10    15    1
    22    10    35    1
    23    11    14    1
    24    11    36    1
    25    11    37    1
    26    12    13    1
    27    12    38    1
    28    12    39    1
    29    13    40    1
    30    13    41    1
    31    14    42    1
    32    14    43    1
    33    15    19    1
    34    15    22    1
    35    15    24    1
    36    16    21    1
    37    16    23    1
    38    16    44    1
    39    17    45    1
    40    17    46    1
    41    17    47    1
    42    18    20    1
    43    18    48    1
    44    18    49    1
    45    19    20    2
    46    19    25    1
    47    20    51    1
    48    21    26    1
    49    21    52    1
    50    22    54    1
    51    22    55    1
    52    22    56    1
    53    23    57    1
    54    23    58    1
    55    23    59    1
    56    24    27    1
    57    25    28    1
    58    25    60    1
    59    25    61    1
    60    26    29    1
    61    26    62    1
    62    26    63    1
    63    27    28    2
    64    27    64    1
    65    28    65    1
    66    29    31    2
    67    29    32    1
    68    30    31    1
    69    31    33    1
    70    32    66    1
    71    32    67    1
    72    32    68    1
    73    33    69    1
    74    33    70    1
    75    33    71    1
