@<TRIPOS>MOLECULE
IMPHY009379
 29 31 0 0 0
SMALL
GASTEIGER

@<TRIPOS>ATOM
      1 O           7.8167    1.8592    0.0000 O.3     1  UNL1       -0.5058
      2 O           6.0682    1.8246    0.0000 O.2     1  UNL1       -0.2865
      3 O           6.0682   -2.1754    0.0000 O.2     1  UNL1       -0.2866
      4 O           2.5381   -1.1995    0.0000 O.3     1  UNL1       -0.5067
      5 C           6.9343    0.3246    0.0000 C.ar    1  UNL1        0.0747
      6 C           6.9343   -0.6754    0.0000 C.ar    1  UNL1        0.0366
      7 C           5.2022    0.3246    0.0000 C.ar    1  UNL1        0.0334
      8 C           5.2022   -0.6754    0.0000 C.ar    1  UNL1        0.0365
      9 C           6.0682    0.8246    0.0000 C.2     1  UNL1        0.1980
     10 C           6.0682   -1.1754    0.0000 C.2     1  UNL1        0.1947
     11 C           7.8282    0.8593    0.0000 C.ar    1  UNL1        0.1312
     12 C           8.7343    0.3454    0.0000 C.ar    1  UNL1       -0.0083
     13 C           7.8282   -1.2100    0.0000 C.ar    1  UNL1       -0.0498
     14 C           8.7343   -0.6962    0.0000 C.ar    1  UNL1       -0.0547
     15 C           4.3083   -1.2100    0.0000 C.ar    1  UNL1       -0.0087
     16 C           4.3083    0.8593    0.0000 C.ar    1  UNL1       -0.0468
     17 C           3.4022   -0.6962    0.0000 C.ar    1  UNL1        0.1176
     18 C           3.4022    0.3454    0.0000 C.ar    1  UNL1       -0.0195
     19 C           9.5984    0.8488    0.0000 C.3     1  UNL1       -0.0362
     20 H           7.8210   -1.8300    0.0000 H       1  UNL1        0.0625
     21 H           9.2700   -1.0083    0.0000 H       1  UNL1        0.0622
     22 H           4.3154   -1.8300    0.0000 H       1  UNL1        0.0661
     23 H           4.3154    1.4792    0.0000 H       1  UNL1        0.0626
     24 H           2.8665    0.6575    0.0000 H       1  UNL1        0.0654
     25 H           9.9105    0.3130    0.0000 H       1  UNL1        0.0279
     26 H          10.1341    1.1608    0.0000 H       1  UNL1        0.0279
     27 H           9.2863    1.3845    0.0000 H       1  UNL1        0.0279
     28 H           8.3500    2.1754    0.0000 H       1  UNL1        0.2922
     29 H           2.0000   -0.8916    0.0000 H       1  UNL1        0.2921
@<TRIPOS>BOND
     1     1    11    1
     2     1    28    1
     3     2     9    2
     4     3    10    2
     5     4    17    1
     6     4    29    1
     7     5     6   ar
     8     5     9    1
     9     5    11   ar
    10     6    10    1
    11     6    13   ar
    12     7     8   ar
    13     7     9    1
    14     7    16   ar
    15     8    10    1
    16     8    15   ar
    17    11    12   ar
    18    12    14   ar
    19    12    19    1
    20    13    14   ar
    21    13    20    1
    22    14    21    1
    23    15    17   ar
    24    15    22    1
    25    16    18   ar
    26    16    23    1
    27    17    18   ar
    28    18    24    1
    29    19    25    1
    30    19    26    1
    31    19    27    1
