@<TRIPOS>MOLECULE
IMPHY017949
 12 11 0 0 0
SMALL
GASTEIGER

@<TRIPOS>ATOM
      1 C           0.0000   -3.4549    0.0000 C.3     1  UNL1        0.0264
      2 C           1.3337   -3.4549    0.0000 C.2     1  UNL1       -0.0413
      3 C           1.9935   -4.6113    0.0000 C.3     1  UNL1        0.0475
      4 C           3.3272   -4.6113    0.0000 C.2     1  UNL1       -0.0239
      5 C           3.9941   -5.7606    0.0000 C.2     1  UNL1       -0.0009
      6 C           5.3207   -5.7606    0.0000 C.3     1  UNL1        0.1449
      7 C           5.3207   -7.0943    0.0000 C.3     1  UNL1        0.0375
      8 C           5.3207   -4.4339    0.0000 C.3     1  UNL1        0.0375
      9 O           6.6545   -5.7606    0.0000 O.3     1  UNL1       -0.2212
     10 C           1.9935   -2.3056    0.0000 C.2     1  UNL1        0.0009
     11 C           1.3337   -1.1493    0.0000 C.3     1  UNL1        0.2077
     12 O           1.9935    0.0000    0.0000 O.3     1  UNL1       -0.2152
@<TRIPOS>BOND
     1     1     2    1
     2     2     3    1
     3     2    10    2
     4     3     4    1
     5     4     5    2
     6     5     6    1
     7     6     7    1
     8     6     8    1
     9     6     9    1
    10    10    11    1
    11    11    12    1
