@<TRIPOS>MOLECULE
IMPHY016558
 40 42 0 0 0
SMALL
GASTEIGER

@<TRIPOS>ATOM
      1 O           5.7258   -0.7042    0.0000 O.3     1  UNL1       -0.3909
      2 C           4.0430   -0.5146    0.0000 C.3     1  UNL1        0.0011
      3 C           3.1420   -0.0807    0.0000 C.3     1  UNL1       -0.0271
      4 C           2.9195    0.8942    0.0000 C.3     1  UNL1       -0.0250
      5 C           3.5430    1.6760    0.0000 C.3     1  UNL1       -0.0141
      6 C           4.1499    0.6621    0.0000 C.3     1  UNL1       -0.0377
      7 C           3.9070   -1.4994    0.0000 C.3     1  UNL1       -0.0421
      8 C           2.4569   -0.8010    0.0000 C.3     1  UNL1       -0.0465
      9 C           4.9440   -0.0807    0.0000 C.3     1  UNL1        0.0648
     10 C           2.9288   -1.6760    0.0000 C.3     1  UNL1       -0.0430
     11 C           4.5430    1.6760    0.0000 C.2     1  UNL1       -0.0705
     12 C           5.1665    0.8942    0.0000 C.3     1  UNL1       -0.0050
     13 C           2.2616    1.6472    0.0000 C.3     1  UNL1       -0.0590
     14 C           2.0000    0.5012    0.0000 C.3     1  UNL1       -0.0590
     15 C           2.4949   -2.5770    0.0000 C.3     1  UNL1       -0.0624
     16 C           4.9769    2.5770    0.0000 C.2     1  UNL1       -0.0991
     17 H           2.5442    0.0834    0.0000 H       1  UNL1        0.0312
     18 H           3.2740    2.2346    0.0000 H       1  UNL1        0.0351
     19 H           4.7199    0.4183    0.0000 H       1  UNL1        0.0277
     20 H           4.5577    1.1292    0.0000 H       1  UNL1        0.0277
     21 H           3.9525   -2.1177    0.0000 H       1  UNL1        0.0274
     22 H           4.5267   -1.5192    0.0000 H       1  UNL1        0.0274
     23 H           2.0551   -0.3289    0.0000 H       1  UNL1        0.0271
     24 H           1.9452   -1.1510    0.0000 H       1  UNL1        0.0271
     25 H           4.8746   -0.6968    0.0000 H       1  UNL1        0.0602
     26 H           2.3089   -1.6902    0.0000 H       1  UNL1        0.0298
     27 H           5.7251    0.6252    0.0000 H       1  UNL1        0.0335
     28 H           5.5531    1.3789    0.0000 H       1  UNL1        0.0335
     29 H           2.7285    2.0552    0.0000 H       1  UNL1        0.0235
     30 H           1.8537    2.1142    0.0000 H       1  UNL1        0.0235
     31 H           1.7947    1.2393    0.0000 H       1  UNL1        0.0235
     32 H           1.7563    1.0713    0.0000 H       1  UNL1        0.0235
     33 H           1.4299    0.2575    0.0000 H       1  UNL1        0.0235
     34 H           2.2437   -0.0689    0.0000 H       1  UNL1        0.0235
     35 H           1.9363   -2.3080    0.0000 H       1  UNL1        0.0232
     36 H           2.2259   -3.1356    0.0000 H       1  UNL1        0.0232
     37 H           3.0535   -2.8460    0.0000 H       1  UNL1        0.0232
     38 H           6.3030   -0.4777    0.0000 H       1  UNL1        0.2098
     39 H           5.5952    2.6233    0.0000 H       1  UNL1        0.0535
     40 H           4.6276    3.0892    0.0000 H       1  UNL1        0.0535
@<TRIPOS>BOND
     1     1     9    1
     2     1    38    1
     3     2     3    1
     4     2     6    1
     5     2     7    1
     6     2     9    1
     7     3     4    1
     8     3     8    1
     9     3    17    1
    10     4     5    1
    11     4    13    1
    12     4    14    1
    13     5     6    1
    14     5    11    1
    15     5    18    1
    16     6    19    1
    17     6    20    1
    18     7    10    1
    19     7    21    1
    20     7    22    1
    21     8    10    1
    22     8    23    1
    23     8    24    1
    24     9    12    1
    25     9    25    1
    26    10    15    1
    27    10    26    1
    28    11    12    1
    29    11    16    2
    30    12    27    1
    31    12    28    1
    32    13    29    1
    33    13    30    1
    34    13    31    1
    35    14    32    1
    36    14    33    1
    37    14    34    1
    38    15    35    1
    39    15    36    1
    40    15    37    1
    41    16    39    1
    42    16    40    1
