@<TRIPOS>MOLECULE
IMPHY008012
 24 24 0 0 0
SMALL
GASTEIGER

@<TRIPOS>ATOM
      1 O           4.2690    2.3100    0.0000 O.3     1  UNL1       -0.4915
      2 O           6.8671   -2.1900    0.0000 O.3     1  UNL1       -0.3947
      3 O           2.5369    1.3100    0.0000 O.3     1  UNL1       -0.5033
      4 C           5.1350   -0.1900    0.0000 C.ar    1  UNL1       -0.0415
      5 C           6.0010   -0.6900    0.0000 C.3     1  UNL1       -0.0043
      6 C           5.1350    0.8100    0.0000 C.ar    1  UNL1       -0.0131
      7 C           4.2690   -0.6900    0.0000 C.ar    1  UNL1       -0.0548
      8 C           6.0010   -1.6900    0.0000 C.3     1  UNL1        0.0482
      9 C           4.2690    1.3100    0.0000 C.ar    1  UNL1        0.1615
     10 C           3.4030    0.8100    0.0000 C.ar    1  UNL1        0.1585
     11 C           3.4030   -0.1900    0.0000 C.ar    1  UNL1       -0.0163
     12 C           5.1350    2.8100    0.0000 C.3     1  UNL1        0.0790
     13 H           6.6116   -0.7977    0.0000 H       1  UNL1        0.0335
     14 H           6.2131   -0.1074    0.0000 H       1  UNL1        0.0335
     15 H           5.6720    1.1200    0.0000 H       1  UNL1        0.0658
     16 H           4.2690   -1.3100    0.0000 H       1  UNL1        0.0621
     17 H           5.3905   -1.5823    0.0000 H       1  UNL1        0.0560
     18 H           5.7890   -2.2726    0.0000 H       1  UNL1        0.0560
     19 H           2.8660   -0.5000    0.0000 H       1  UNL1        0.0655
     20 H           6.8671   -2.8100    0.0000 H       1  UNL1        0.2094
     21 H           5.4450    2.2731    0.0000 H       1  UNL1        0.0660
     22 H           5.6720    3.1200    0.0000 H       1  UNL1        0.0660
     23 H           4.8250    3.3469    0.0000 H       1  UNL1        0.0660
     24 H           2.0000    1.0000    0.0000 H       1  UNL1        0.2923
@<TRIPOS>BOND
     1     1     9    1
     2     1    12    1
     3     2     8    1
     4     2    20    1
     5     3    10    1
     6     3    24    1
     7     4     5    1
     8     4     6   ar
     9     4     7   ar
    10     5     8    1
    11     5    13    1
    12     5    14    1
    13     6     9   ar
    14     6    15    1
    15     7    11   ar
    16     7    16    1
    17     8    17    1
    18     8    18    1
    19     9    10   ar
    20    10    11   ar
    21    11    19    1
    22    12    21    1
    23    12    22    1
    24    12    23    1
