@<TRIPOS>MOLECULE
IMPHY012011
 21 21 0 0 0
SMALL
GASTEIGER

@<TRIPOS>ATOM
      1 O           2.5369   -1.4050    0.0000 O.3     1  UNL1       -0.5033
      2 O           4.2690   -2.4050    0.0000 O.3     1  UNL1       -0.5033
      3 O           6.8671    2.0950    0.0000 O.3     1  UNL1       -0.4775
      4 O           6.0010    0.5950    0.0000 O.2     1  UNL1       -0.2458
      5 C           4.2690    0.5950    0.0000 C.ar    1  UNL1       -0.0211
      6 C           3.4030    0.0950    0.0000 C.ar    1  UNL1       -0.0094
      7 C           5.1350    0.0950    0.0000 C.ar    1  UNL1       -0.0509
      8 C           3.4030   -0.9050    0.0000 C.ar    1  UNL1        0.1588
      9 C           4.2690   -1.4050    0.0000 C.ar    1  UNL1        0.1582
     10 C           5.1350   -0.9050    0.0000 C.ar    1  UNL1       -0.0160
     11 C           4.2690    1.5950    0.0000 C.2     1  UNL1       -0.0477
     12 C           5.1350    2.0950    0.0000 C.2     1  UNL1        0.0229
     13 C           6.0010    1.5950    0.0000 C.2     1  UNL1        0.3296
     14 H           2.8660    0.4050    0.0000 H       1  UNL1        0.0661
     15 H           5.6720    0.4050    0.0000 H       1  UNL1        0.0625
     16 H           5.6720   -1.2150    0.0000 H       1  UNL1        0.0655
     17 H           3.7320    1.9050    0.0000 H       1  UNL1        0.0626
     18 H           5.1350    2.7150    0.0000 H       1  UNL1        0.0689
     19 H           2.0000   -1.0950    0.0000 H       1  UNL1        0.2923
     20 H           4.8059   -2.7150    0.0000 H       1  UNL1        0.2923
     21 H           7.4040    1.7850    0.0000 H       1  UNL1        0.2954
@<TRIPOS>BOND
     1     1     8    1
     2     1    19    1
     3     2     9    1
     4     2    20    1
     5     3    13    1
     6     3    21    1
     7     4    13    2
     8     5     6   ar
     9     5     7   ar
    10     5    11    1
    11     6     8   ar
    12     6    14    1
    13     7    10   ar
    14     7    15    1
    15     8     9   ar
    16     9    10   ar
    17    10    16    1
    18    11    12    2
    19    11    17    1
    20    12    13    1
    21    12    18    1
