@<TRIPOS>MOLECULE
IMPHY002857
 65 70 0 0 0
SMALL
GASTEIGER

@<TRIPOS>ATOM
      1 O           4.9852   -1.3905    0.0000 O.3     1  UNL1       -0.3656
      2 O           2.9269   -0.0646    0.0000 O.3     1  UNL1       -0.3728
      3 O           5.6638    3.1128    0.0000 O.2     1  UNL1       -0.2921
      4 O           8.2401    1.5814    0.0000 O.3     1  UNL1       -0.4679
      5 O           7.3740    0.0814    0.0000 O.2     1  UNL1       -0.2509
      6 O           9.6799   -3.1506    0.0000 O.2     1  UNL1       -0.4707
      7 C           5.6420    0.0814    0.0000 C.3     1  UNL1        0.0244
      8 C           3.9099    1.0814    0.0000 C.3     1  UNL1        0.0114
      9 C           4.7760    1.5814    0.0000 C.3     1  UNL1        0.0404
     10 C           5.6420    1.0814    0.0000 C.3     1  UNL1       -0.0066
     11 C           4.7760   -0.4186    0.0000 C.3     1  UNL1        0.0952
     12 C           3.9099    0.0814    0.0000 C.3     1  UNL1        0.0902
     13 C           2.9999    1.5882    0.0000 C.3     1  UNL1        0.0158
     14 C           6.3790   -0.5857    0.0000 C.2     1  UNL1       -0.0329
     15 C           5.9739   -1.4935    0.0000 C.3     1  UNL1        0.0819
     16 C           2.4131    0.7861    0.0000 C.3     1  UNL1        0.0573
     17 C           6.5080    0.5814    0.0000 C.3     1  UNL1       -0.0530
     18 C           4.7920    2.6229    0.0000 C.2     1  UNL1        0.1623
     19 C           6.5080    1.5814    0.0000 C.3     1  UNL1        0.0495
     20 C           5.6420    2.0814    0.0000 C.3     1  UNL1       -0.0518
     21 C           7.3614   -0.6924    0.0000 C.2     1  UNL1       -0.0628
     22 C           6.7094   -2.1535    0.0000 C.3     1  UNL1       -0.0121
     23 C           2.9919    2.6298    0.0000 C.2     1  UNL1       -0.0722
     24 C           7.5652   -1.6594    0.0000 C.3     1  UNL1        0.0109
     25 C           2.0000    1.5767    0.0000 C.3     1  UNL1       -0.0536
     26 C           3.8940    3.1506    0.0000 C.2     1  UNL1       -0.0220
     27 C           8.0325    0.0490    0.0000 C.3     1  UNL1       -0.0429
     28 C           7.3740    1.0814    0.0000 C.2     1  UNL1        0.3071
     29 C           8.4784   -2.0669    0.0000 C.ar    1  UNL1       -0.0025
     30 C           9.3448   -1.5676    0.0000 C.ar    1  UNL1       -0.0202
     31 C           8.6855   -3.0452    0.0000 C.ar    1  UNL1        0.0954
     32 C          10.0874   -2.2374    0.0000 C.ar    1  UNL1        0.0920
     33 C           8.2401    2.5814    0.0000 C.3     1  UNL1        0.0817
     34 H           3.9099    1.9314    0.0000 H       1  UNL1        0.0345
     35 H           6.1789    0.7714    0.0000 H       1  UNL1        0.0325
     36 H           4.0889   -0.9192    0.0000 H       1  UNL1        0.0631
     37 H           3.7510   -0.7536    0.0000 H       1  UNL1        0.0625
     38 H           5.6292   -2.2705    0.0000 H       1  UNL1        0.0644
     39 H           1.9653    1.2149    0.0000 H       1  UNL1        0.0568
     40 H           1.9292    0.3986    0.0000 H       1  UNL1        0.0568
     41 H           6.8180    0.0444    0.0000 H       1  UNL1        0.0239
     42 H           7.0450    0.8914    0.0000 H       1  UNL1        0.0239
     43 H           6.1980    1.1183    0.0000 H       1  UNL1        0.0239
     44 H           6.9065    2.0563    0.0000 H       1  UNL1        0.0381
     45 H           6.1095    2.0563    0.0000 H       1  UNL1        0.0381
     46 H           5.9520    1.5444    0.0000 H       1  UNL1        0.0239
     47 H           6.1789    2.3914    0.0000 H       1  UNL1        0.0239
     48 H           5.3320    2.6183    0.0000 H       1  UNL1        0.0239
     49 H           6.2491   -2.5689    0.0000 H       1  UNL1        0.0302
     50 H           7.0741   -2.6548    0.0000 H       1  UNL1        0.0302
     51 H           2.4538    2.9377    0.0000 H       1  UNL1        0.0579
     52 H           8.0475   -1.2698    0.0000 H       1  UNL1        0.0396
     53 H           1.9928    2.1966    0.0000 H       1  UNL1        0.0239
     54 H           1.3800    1.5695    0.0000 H       1  UNL1        0.0239
     55 H           2.0072    0.9567    0.0000 H       1  UNL1        0.0239
     56 H           3.8964    3.7706    0.0000 H       1  UNL1        0.0649
     57 H           8.4922   -0.3671    0.0000 H       1  UNL1        0.0275
     58 H           8.4485    0.5087    0.0000 H       1  UNL1        0.0275
     59 H           7.5728    0.4650    0.0000 H       1  UNL1        0.0275
     60 H           9.4102   -0.9511    0.0000 H       1  UNL1        0.0652
     61 H           8.2702   -3.5056    0.0000 H       1  UNL1        0.1032
     62 H          10.6940   -2.1090    0.0000 H       1  UNL1        0.1029
     63 H           8.8601    2.5814    0.0000 H       1  UNL1        0.0661
     64 H           8.2401    3.2014    0.0000 H       1  UNL1        0.0661
     65 H           7.6201    2.5814    0.0000 H       1  UNL1        0.0661
@<TRIPOS>BOND
     1     1    11    1
     2     1    15    1
     3     2    12    1
     4     2    16    1
     5     3    18    2
     6     4    28    1
     7     4    33    1
     8     5    28    2
     9     6    31   ar
    10     6    32   ar
    11     7    10    1
    12     7    11    1
    13     7    14    1
    14     7    17    1
    15     8     9    1
    16     8    12    1
    17     8    13    1
    18     8    34    1
    19     9    10    1
    20     9    18    1
    21     9    20    1
    22    10    19    1
    23    10    35    1
    24    11    12    1
    25    11    36    1
    26    12    37    1
    27    13    16    1
    28    13    23    1
    29    13    25    1
    30    14    15    1
    31    14    21    2
    32    15    22    1
    33    15    38    1
    34    16    39    1
    35    16    40    1
    36    17    41    1
    37    17    42    1
    38    17    43    1
    39    18    26    1
    40    19    28    1
    41    19    44    1
    42    19    45    1
    43    20    46    1
    44    20    47    1
    45    20    48    1
    46    21    24    1
    47    21    27    1
    48    22    24    1
    49    22    49    1
    50    22    50    1
    51    23    26    2
    52    23    51    1
    53    24    29    1
    54    24    52    1
    55    25    53    1
    56    25    54    1
    57    25    55    1
    58    26    56    1
    59    27    57    1
    60    27    58    1
    61    27    59    1
    62    29    30   ar
    63    29    31   ar
    64    30    32   ar
    65    30    60    1
    66    31    61    1
    67    32    62    1
    68    33    63    1
    69    33    64    1
    70    33    65    1
