@<TRIPOS>MOLECULE
IMPHY001980
 83 87 0 0 0
SMALL
GASTEIGER

@<TRIPOS>ATOM
      1 O          11.1246    3.0930    0.0000 O.3     1  UNL1       -0.3915
      2 O           3.9891   -3.0931    0.0000 O.3     1  UNL1       -0.4802
      3 O           5.7211   -3.1064    0.0000 O.2     1  UNL1       -0.2504
      4 C           6.6507   -0.5513    0.0000 C.3     1  UNL1       -0.0230
      5 C           5.7847   -0.0513    0.0000 C.3     1  UNL1       -0.0225
      6 C           7.5167   -0.0513    0.0000 C.3     1  UNL1       -0.0294
      7 C           7.5167    0.9487    0.0000 C.3     1  UNL1       -0.0254
      8 C           4.8746   -0.5582    0.0000 C.3     1  UNL1       -0.0189
      9 C           8.4106    1.4833    0.0000 C.3     1  UNL1       -0.0295
     10 C           9.3167    0.9695    0.0000 C.3     1  UNL1       -0.0238
     11 C           5.7847    0.9487    0.0000 C.3     1  UNL1       -0.0463
     12 C           6.6507    1.4487    0.0000 C.3     1  UNL1       -0.0466
     13 C           4.8666   -1.5998    0.0000 C.3     1  UNL1        0.0710
     14 C           6.6667   -1.5928    0.0000 C.3     1  UNL1       -0.0458
     15 C           8.4106   -0.5860    0.0000 C.3     1  UNL1       -0.0487
     16 C           9.3167   -0.0722    0.0000 C.3     1  UNL1       -0.0467
     17 C           5.7687   -2.1206    0.0000 C.3     1  UNL1       -0.0365
     18 C           3.9478    0.0059    0.0000 C.3     1  UNL1       -0.0435
     19 C           7.5167   -1.0513    0.0000 C.3     1  UNL1       -0.0588
     20 C           4.9186    0.4487    0.0000 C.3     1  UNL1       -0.0588
     21 C          10.2605    1.5047    0.0000 C.3     1  UNL1       -0.0121
     22 C           8.3856    2.5680    0.0000 C.3     1  UNL1       -0.0469
     23 C           7.5167    1.9487    0.0000 C.3     1  UNL1       -0.0590
     24 C           3.9312   -2.1495    0.0000 C.3     1  UNL1       -0.0365
     25 C           2.9999   -0.5220    0.0000 C.3     1  UNL1       -0.0345
     26 C           2.9916   -1.6070    0.0000 C.3     1  UNL1       -0.0468
     27 C          10.2605    2.5897    0.0000 C.3     1  UNL1        0.0583
     28 C          10.1866    0.4762    0.0000 C.3     1  UNL1       -0.0590
     29 C           9.3167    3.1250    0.0000 C.3     1  UNL1       -0.0263
     30 C           4.8589   -2.5997    0.0000 C.2     1  UNL1        0.3112
     31 C          11.1246    1.0014    0.0000 C.3     1  UNL1       -0.0596
     32 C           2.0000   -0.5105    0.0000 C.3     1  UNL1       -0.0598
     33 C           2.5100    0.3497    0.0000 C.3     1  UNL1       -0.0598
     34 H           8.2561    0.3680    0.0000 H       1  UNL1        0.0312
     35 H           5.6058   -0.9917    0.0000 H       1  UNL1        0.0317
     36 H           9.1401    1.9196    0.0000 H       1  UNL1        0.0311
     37 H           5.5726    1.5313    0.0000 H       1  UNL1        0.0271
     38 H           5.1741    0.8410    0.0000 H       1  UNL1        0.0271
     39 H           7.0492    1.9236    0.0000 H       1  UNL1        0.0271
     40 H           6.2522    1.9236    0.0000 H       1  UNL1        0.0271
     41 H           6.8848   -2.1732    0.0000 H       1  UNL1        0.0271
     42 H           7.2759   -1.4773    0.0000 H       1  UNL1        0.0271
     43 H           8.0060   -1.0558    0.0000 H       1  UNL1        0.0268
     44 H           8.8043   -1.0650    0.0000 H       1  UNL1        0.0268
     45 H           9.5258   -0.6558    0.0000 H       1  UNL1        0.0271
     46 H           9.9276    0.0339    0.0000 H       1  UNL1        0.0271
     47 H           5.3714   -2.5966    0.0000 H       1  UNL1        0.0276
     48 H           6.1697   -2.5935    0.0000 H       1  UNL1        0.0276
     49 H           4.3560    0.4726    0.0000 H       1  UNL1        0.0274
     50 H           3.5579    0.4879    0.0000 H       1  UNL1        0.0274
     51 H           7.2067   -1.5883    0.0000 H       1  UNL1        0.0235
     52 H           8.0536   -1.3613    0.0000 H       1  UNL1        0.0235
     53 H           7.8267   -0.5144    0.0000 H       1  UNL1        0.0235
     54 H           5.2286    0.9856    0.0000 H       1  UNL1        0.0235
     55 H           4.3817    0.7587    0.0000 H       1  UNL1        0.0235
     56 H           4.6086   -0.0883    0.0000 H       1  UNL1        0.0235
     57 H          10.7980    1.8137    0.0000 H       1  UNL1        0.0328
     58 H           8.1631    3.1467    0.0000 H       1  UNL1        0.0269
     59 H           7.7773    2.4478    0.0000 H       1  UNL1        0.0269
     60 H           8.1367    1.9487    0.0000 H       1  UNL1        0.0235
     61 H           7.5167    2.5687    0.0000 H       1  UNL1        0.0235
     62 H           6.8967    1.9487    0.0000 H       1  UNL1        0.0235
     63 H           3.5339   -2.6255    0.0000 H       1  UNL1        0.0276
     64 H           4.3322   -2.6224    0.0000 H       1  UNL1        0.0276
     65 H           2.3816   -1.4962    0.0000 H       1  UNL1        0.0271
     66 H           2.7780   -2.1891    0.0000 H       1  UNL1        0.0271
     67 H          10.2569    3.2097    0.0000 H       1  UNL1        0.0596
     68 H           9.8807   -0.0631    0.0000 H       1  UNL1        0.0235
     69 H          10.7259    0.1703    0.0000 H       1  UNL1        0.0235
     70 H          10.4924    1.0155    0.0000 H       1  UNL1        0.0235
     71 H           9.7103    3.6040    0.0000 H       1  UNL1        0.0290
     72 H           8.9121    3.5947    0.0000 H       1  UNL1        0.0290
     73 H          10.8125    0.4656    0.0000 H       1  UNL1        0.0233
     74 H          11.6603    0.6893    0.0000 H       1  UNL1        0.0233
     75 H          11.4367    1.5371    0.0000 H       1  UNL1        0.0233
     76 H           3.0505    0.6535    0.0000 H       1  UNL1        0.0235
     77 H           2.2062    0.8902    0.0000 H       1  UNL1        0.0235
     78 H           1.9695    0.0459    0.0000 H       1  UNL1        0.0235
     79 H           2.0072    0.1095    0.0000 H       1  UNL1        0.0235
     80 H           1.3800   -0.5033    0.0000 H       1  UNL1        0.0235
     81 H           1.9928   -1.1304    0.0000 H       1  UNL1        0.0235
     82 H          11.1222    3.7130    0.0000 H       1  UNL1        0.2098
     83 H           3.9843   -3.7130    0.0000 H       1  UNL1        0.2951
@<TRIPOS>BOND
     1    27     1    1
     2     1    82    1
     3     2    30    1
     4     2    83    1
     5     3    30    2
     6     4     5    1
     7     4     6    1
     8     4    14    1
     9     4    19    1
    10     5     8    1
    11     5    11    1
    12     5    20    1
    13     6     7    1
    14     6    15    1
    15     6    34    1
    16     7     9    1
    17     7    12    1
    18     7    23    1
    19     8    13    1
    20     8    18    1
    21     8    35    1
    22     9    10    1
    23     9    22    1
    24     9    36    1
    25    10    16    1
    26    10    21    1
    27    10    28    1
    28    11    12    1
    29    11    37    1
    30    11    38    1
    31    12    39    1
    32    12    40    1
    33    13    17    1
    34    13    24    1
    35    13    30    1
    36    14    17    1
    37    14    41    1
    38    14    42    1
    39    15    16    1
    40    15    43    1
    41    15    44    1
    42    16    45    1
    43    16    46    1
    44    17    47    1
    45    17    48    1
    46    18    25    1
    47    18    49    1
    48    18    50    1
    49    19    51    1
    50    19    52    1
    51    19    53    1
    52    20    54    1
    53    20    55    1
    54    20    56    1
    55    21    27    1
    56    21    31    1
    57    21    57    1
    58    22    29    1
    59    22    58    1
    60    22    59    1
    61    23    60    1
    62    23    61    1
    63    23    62    1
    64    24    26    1
    65    24    63    1
    66    24    64    1
    67    25    26    1
    68    25    32    1
    69    25    33    1
    70    26    65    1
    71    26    66    1
    72    27    29    1
    73    27    67    1
    74    28    68    1
    75    28    69    1
    76    28    70    1
    77    29    71    1
    78    29    72    1
    79    31    73    1
    80    31    74    1
    81    31    75    1
    82    32    79    1
    83    32    80    1
    84    32    81    1
    85    33    76    1
    86    33    77    1
    87    33    78    1
