@<TRIPOS>MOLECULE
IMPHY016631
 26 26 0 0 0
SMALL
GASTEIGER

@<TRIPOS>ATOM
      1 O           3.7320    2.0000    0.0000 O.3     1  UNL1       -0.5062
      2 O           3.7320   -2.0000    0.0000 O.3     1  UNL1       -0.5062
      3 C           4.5981    0.5000    0.0000 C.ar    1  UNL1       -0.0024
      4 C           4.5981   -0.5000    0.0000 C.ar    1  UNL1       -0.0024
      5 C           2.8660    0.5000    0.0000 C.ar    1  UNL1       -0.0024
      6 C           2.8660   -0.5000    0.0000 C.ar    1  UNL1       -0.0024
      7 C           3.7320    1.0000    0.0000 C.ar    1  UNL1        0.1234
      8 C           3.7320   -1.0000    0.0000 C.ar    1  UNL1        0.1234
      9 C           5.4641    1.0000    0.0000 C.3     1  UNL1       -0.0359
     10 C           5.4641   -1.0000    0.0000 C.3     1  UNL1       -0.0359
     11 C           2.0000    1.0000    0.0000 C.3     1  UNL1       -0.0359
     12 C           2.0000   -1.0000    0.0000 C.3     1  UNL1       -0.0359
     13 H           5.7741    0.4631    0.0000 H       1  UNL1        0.0279
     14 H           6.0010    1.3100    0.0000 H       1  UNL1        0.0279
     15 H           5.1541    1.5369    0.0000 H       1  UNL1        0.0279
     16 H           5.1541   -1.5369    0.0000 H       1  UNL1        0.0279
     17 H           6.0010   -1.3100    0.0000 H       1  UNL1        0.0279
     18 H           5.7741   -0.4631    0.0000 H       1  UNL1        0.0279
     19 H           2.3100    1.5369    0.0000 H       1  UNL1        0.0279
     20 H           1.4631    1.3100    0.0000 H       1  UNL1        0.0279
     21 H           1.6900    0.4631    0.0000 H       1  UNL1        0.0279
     22 H           1.6900   -0.4631    0.0000 H       1  UNL1        0.0279
     23 H           1.4631   -1.3100    0.0000 H       1  UNL1        0.0279
     24 H           2.3100   -1.5369    0.0000 H       1  UNL1        0.0279
     25 H           4.2690    2.3100    0.0000 H       1  UNL1        0.2922
     26 H           3.1951   -2.3100    0.0000 H       1  UNL1        0.2922
@<TRIPOS>BOND
     1     1     7    1
     2     1    25    1
     3     2     8    1
     4     2    26    1
     5     3     4   ar
     6     3     7   ar
     7     3     9    1
     8     4     8   ar
     9     4    10    1
    10     5     6   ar
    11     5     7   ar
    12     5    11    1
    13     6     8   ar
    14     6    12    1
    15     9    13    1
    16     9    14    1
    17     9    15    1
    18    10    16    1
    19    10    17    1
    20    10    18    1
    21    11    19    1
    22    11    20    1
    23    11    21    1
    24    12    22    1
    25    12    23    1
    26    12    24    1
