@<TRIPOS>MOLECULE
IMPHY015717
 24 23 0 0 0
SMALL
GASTEIGER

@<TRIPOS>ATOM
      1 O           4.5981   -0.7500    0.0000 O.2     1  UNL1       -0.2970
      2 O           2.8660   -0.7500    0.0000 O.2     1  UNL1       -0.2973
      3 C           6.3301    0.2500    0.0000 C.3     1  UNL1       -0.0400
      4 C           5.4641    0.7500    0.0000 C.3     1  UNL1        0.0086
      5 C           7.1962    0.7500    0.0000 C.3     1  UNL1       -0.0623
      6 C           6.3301   -0.7500    0.0000 C.3     1  UNL1       -0.0623
      7 C           4.5981    0.2500    0.0000 C.2     1  UNL1        0.1407
      8 C           3.7320    0.7500    0.0000 C.3     1  UNL1        0.0640
      9 C           2.8660    0.2500    0.0000 C.2     1  UNL1        0.1374
     10 C           2.0000    0.7500    0.0000 C.3     1  UNL1       -0.0056
     11 H           6.8671   -0.0600    0.0000 H       1  UNL1        0.0299
     12 H           5.8626    1.2250    0.0000 H       1  UNL1        0.0344
     13 H           5.0656    1.2250    0.0000 H       1  UNL1        0.0344
     14 H           7.5062    0.2131    0.0000 H       1  UNL1        0.0232
     15 H           7.7331    1.0600    0.0000 H       1  UNL1        0.0232
     16 H           6.8862    1.2869    0.0000 H       1  UNL1        0.0232
     17 H           5.7101   -0.7500    0.0000 H       1  UNL1        0.0232
     18 H           6.3301   -1.3700    0.0000 H       1  UNL1        0.0232
     19 H           6.9501   -0.7500    0.0000 H       1  UNL1        0.0232
     20 H           4.1306    1.2250    0.0000 H       1  UNL1        0.0419
     21 H           3.3335    1.2250    0.0000 H       1  UNL1        0.0419
     22 H           2.3100    1.2869    0.0000 H       1  UNL1        0.0306
     23 H           1.4631    1.0600    0.0000 H       1  UNL1        0.0306
     24 H           1.6900    0.2131    0.0000 H       1  UNL1        0.0306
@<TRIPOS>BOND
     1     1     7    2
     2     2     9    2
     3     3     4    1
     4     3     5    1
     5     3     6    1
     6     3    11    1
     7     4     7    1
     8     4    12    1
     9     4    13    1
    10     5    14    1
    11     5    15    1
    12     5    16    1
    13     6    17    1
    14     6    18    1
    15     6    19    1
    16     7     8    1
    17     8     9    1
    18     8    20    1
    19     8    21    1
    20     9    10    1
    21    10    22    1
    22    10    23    1
    23    10    24    1
