@<TRIPOS>MOLECULE
IMPHY005469
 63 66 0 0 0
SMALL
GASTEIGER

@<TRIPOS>ATOM
      1 O           6.8671   -0.2001    0.0000 O.3     1  UNL1       -0.3093
      2 O           6.0010    1.2999    0.0000 O.2     1  UNL1       -0.4707
      3 O           5.1350   -0.2001    0.0000 O.3     1  UNL1       -0.3404
      4 O           8.9900    3.5552    0.0000 O.3     1  UNL1       -0.3872
      5 O           6.8671   -2.2001    0.0000 O.3     1  UNL1       -0.3841
      6 O           5.1350   -3.2001    0.0000 O.3     1  UNL1       -0.3864
      7 O           3.4030   -2.2001    0.0000 O.3     1  UNL1       -0.3865
      8 O           9.9685   -0.1616    0.0000 O.3     1  UNL1       -0.4571
      9 O           2.5369   -0.7001    0.0000 O.3     1  UNL1       -0.3924
     10 O           9.6113   -1.8564    0.0000 O.2     1  UNL1       -0.2456
     11 O          15.4823   -3.0937    0.0000 O.3     1  UNL1       -0.5068
     12 C           7.7331    1.2999    0.0000 C.3     1  UNL1        0.0549
     13 C           7.7331    2.2999    0.0000 C.3     1  UNL1        0.0221
     14 C           6.8671    0.7999    0.0000 C.3     1  UNL1        0.2106
     15 C           8.6793    2.6046    0.0000 C.3     1  UNL1        0.0808
     16 C           8.6793    0.9952    0.0000 C.2     1  UNL1       -0.0245
     17 C           9.2629    1.7999    0.0000 C.2     1  UNL1       -0.0524
     18 C           6.0010   -0.7001    0.0000 C.3     1  UNL1        0.1918
     19 C           6.8671    2.7999    0.0000 C.2     1  UNL1       -0.0430
     20 C           6.0010   -1.7001    0.0000 C.3     1  UNL1        0.1342
     21 C           5.1350   -2.2001    0.0000 C.3     1  UNL1        0.1141
     22 C           4.2690   -1.7001    0.0000 C.3     1  UNL1        0.1119
     23 C           4.2690   -0.7001    0.0000 C.3     1  UNL1        0.1130
     24 C           8.9900    0.0447    0.0000 C.3     1  UNL1        0.1145
     25 C           6.0010    2.2999    0.0000 C.2     1  UNL1        0.0843
     26 C           3.4030   -0.2001    0.0000 C.3     1  UNL1        0.0730
     27 C          10.2791   -1.1121    0.0000 C.2     1  UNL1        0.3323
     28 C          11.2576   -1.3183    0.0000 C.2     1  UNL1        0.0231
     29 C          11.5683   -2.2688    0.0000 C.2     1  UNL1       -0.0478
     30 C          12.5468   -2.4750    0.0000 C.ar    1  UNL1       -0.0246
     31 C          12.8575   -3.4256    0.0000 C.ar    1  UNL1       -0.0511
     32 C          13.2147   -1.7307    0.0000 C.ar    1  UNL1       -0.0511
     33 C          13.8360   -3.6318    0.0000 C.ar    1  UNL1       -0.0196
     34 C          14.1932   -1.9370    0.0000 C.ar    1  UNL1       -0.0196
     35 C          14.5038   -2.8875    0.0000 C.ar    1  UNL1        0.1169
     36 H           7.8230    0.4547    0.0000 H       1  UNL1        0.0414
     37 H           7.8230    3.1451    0.0000 H       1  UNL1        0.0380
     38 H           7.4040    0.4899    0.0000 H       1  UNL1        0.1062
     39 H           8.2418    3.0440    0.0000 H       1  UNL1        0.0644
     40 H           9.8829    1.7999    0.0000 H       1  UNL1        0.0598
     41 H           6.5380   -1.0101    0.0000 H       1  UNL1        0.0939
     42 H           6.0010   -2.3201    0.0000 H       1  UNL1        0.0671
     43 H           6.8671    3.4199    0.0000 H       1  UNL1        0.0606
     44 H           4.5981   -2.5101    0.0000 H       1  UNL1        0.0648
     45 H           3.7320   -1.3901    0.0000 H       1  UNL1        0.0647
     46 H           4.2690   -0.0801    0.0000 H       1  UNL1        0.0647
     47 H           8.3762   -0.0427    0.0000 H       1  UNL1        0.0746
     48 H           8.9694   -0.5750    0.0000 H       1  UNL1        0.0746
     49 H           5.4641    2.6099    0.0000 H       1  UNL1        0.1021
     50 H           9.5966    3.6830    0.0000 H       1  UNL1        0.2102
     51 H           3.8015    0.2749    0.0000 H       1  UNL1        0.0584
     52 H           3.0044    0.2749    0.0000 H       1  UNL1        0.0584
     53 H           6.8671   -2.8201    0.0000 H       1  UNL1        0.2101
     54 H           4.5981   -3.5101    0.0000 H       1  UNL1        0.2100
     55 H           3.4030   -2.8201    0.0000 H       1  UNL1        0.2100
     56 H           2.0000   -0.3901    0.0000 H       1  UNL1        0.2095
     57 H          11.6717   -0.8568    0.0000 H       1  UNL1        0.0689
     58 H          11.1542   -2.7303    0.0000 H       1  UNL1        0.0626
     59 H          12.4434   -3.8870    0.0000 H       1  UNL1        0.0625
     60 H          13.0220   -1.1414    0.0000 H       1  UNL1        0.0625
     61 H          14.0286   -4.2211    0.0000 H       1  UNL1        0.0654
     62 H          14.6072   -1.4755    0.0000 H       1  UNL1        0.0654
     63 H          15.6749   -3.6830    0.0000 H       1  UNL1        0.2921
@<TRIPOS>BOND
     1    14     1    1
     2    18     1    1
     3     2    14    1
     4     2    25    1
     5     3    18    1
     6     3    23    1
     7    15     4    1
     8     4    50    1
     9    20     5    1
    10     5    53    1
    11    21     6    1
    12     6    54    1
    13    22     7    1
    14     7    55    1
    15     8    24    1
    16     8    27    1
    17     9    26    1
    18     9    56    1
    19    10    27    2
    20    11    35    1
    21    11    63    1
    22    12    13    1
    23    12    14    1
    24    12    16    1
    25    12    36    1
    26    13    15    1
    27    13    19    1
    28    13    37    1
    29    14    38    1
    30    15    17    1
    31    15    39    1
    32    16    17    2
    33    16    24    1
    34    17    40    1
    35    18    20    1
    36    18    41    1
    37    19    25    2
    38    19    43    1
    39    20    21    1
    40    20    42    1
    41    21    22    1
    42    21    44    1
    43    22    23    1
    44    22    45    1
    45    23    26    1
    46    23    46    1
    47    24    47    1
    48    24    48    1
    49    25    49    1
    50    26    51    1
    51    26    52    1
    52    27    28    1
    53    28    29    2
    54    28    57    1
    55    29    30    1
    56    29    58    1
    57    30    31   ar
    58    30    32   ar
    59    31    33   ar
    60    31    59    1
    61    32    34   ar
    62    32    60    1
    63    33    35   ar
    64    33    61    1
    65    34    35   ar
    66    34    62    1
