@<TRIPOS>MOLECULE
IMPHY006573
 219 230 0 0 0
SMALL
GASTEIGER

@<TRIPOS>ATOM
      1 O          14.2533    9.1425    0.0000 O.3     1  UNL1       -0.3418
      2 O          16.0484    8.0689    0.0000 O.3     1  UNL1       -0.3892
      3 O          11.6581    2.8732    0.0000 O.3     1  UNL1       -0.3941
      4 O          12.3923   -0.1160    0.0000 O.3     1  UNL1       -0.4318
      5 O          11.8013    8.4791    0.0000 O.3     1  UNL1       -0.4802
      6 O          13.3046    9.3394    0.0000 O.2     1  UNL1       -0.2503
      7 O          11.5263    1.3840    0.0000 O.2     1  UNL1       -0.2501
      8 O          15.9852    9.1225    0.0000 O.3     1  UNL1       -0.3405
      9 O          10.6603   -0.1160    0.0000 O.3     1  UNL1       -0.3327
     10 O          14.2764   11.1424    0.0000 O.3     1  UNL1       -0.3841
     11 O          16.0199   12.1223    0.0000 O.3     1  UNL1       -0.3864
     12 O          12.3923   -2.1160    0.0000 O.3     1  UNL1       -0.3365
     13 O          17.7403   11.1023    0.0000 O.3     1  UNL1       -0.3865
     14 O          10.6603   -3.1160    0.0000 O.3     1  UNL1       -0.3852
     15 O           8.9282   -2.1160    0.0000 O.3     1  UNL1       -0.4529
     16 O          18.5889    9.5924    0.0000 O.3     1  UNL1       -0.3924
     17 O          11.5263   -3.6160    0.0000 O.3     1  UNL1       -0.3431
     18 O          14.1244   -3.1160    0.0000 O.3     1  UNL1       -0.3841
     19 O          14.1244   -5.1160    0.0000 O.3     1  UNL1       -0.3400
     20 O          12.3923   -6.1160    0.0000 O.3     1  UNL1       -0.3402
     21 O           8.0622   -0.6160    0.0000 O.2     1  UNL1       -0.2456
     22 O          15.0949   -3.6215    0.0000 O.3     1  UNL1       -0.3457
     23 O          14.1244   -6.1160    0.0000 O.3     1  UNL1       -0.3460
     24 O          16.1118   -6.0009    0.0000 O.3     1  UNL1       -0.3837
     25 O          17.3162   -4.9488    0.0000 O.3     1  UNL1       -0.3812
     26 O          12.3923   -8.1160    0.0000 O.3     1  UNL1       -0.3841
     27 O          14.1244   -9.1160    0.0000 O.3     1  UNL1       -0.3864
     28 O          15.8564   -8.1160    0.0000 O.3     1  UNL1       -0.3405
     29 O          17.4391   -2.7796    0.0000 O.3     1  UNL1       -0.3920
     30 O          14.9904   -9.6160    0.0000 O.3     1  UNL1       -0.3405
     31 O           2.8660   -3.6160    0.0000 O.3     1  UNL1       -0.4951
     32 O          17.5885   -9.1160    0.0000 O.3     1  UNL1       -0.3841
     33 O          17.5885  -11.1160    0.0000 O.3     1  UNL1       -0.3864
     34 O          15.8564  -12.1160    0.0000 O.3     1  UNL1       -0.3865
     35 O          14.1244  -12.1160    0.0000 O.3     1  UNL1       -0.3924
     36 C          13.2979    4.4530    0.0000 C.3     1  UNL1       -0.0170
     37 C          14.1678    4.9463    0.0000 C.3     1  UNL1       -0.0256
     38 C          14.1919    5.9877    0.0000 C.3     1  UNL1       -0.0221
     39 C          13.2902    3.4530    0.0000 C.3     1  UNL1        0.0208
     40 C          13.2979    6.5223    0.0000 C.3     1  UNL1       -0.0172
     41 C          12.3919    4.9668    0.0000 C.3     1  UNL1       -0.0462
     42 C          14.1524    2.9464    0.0000 C.2     1  UNL1       -0.0604
     43 C          12.3919    6.0085    0.0000 C.3     1  UNL1       -0.0481
     44 C          13.2979    7.6073    0.0000 C.3     1  UNL1        0.0966
     45 C          14.1604    1.9048    0.0000 C.3     1  UNL1       -0.0031
     46 C          15.0299    4.4397    0.0000 C.3     1  UNL1       -0.0306
     47 C          15.1478    6.5009    0.0000 C.3     1  UNL1       -0.0184
     48 C          12.3764    2.9532    0.0000 C.3     1  UNL1       -0.0400
     49 C          13.2583    1.3840    0.0000 C.3     1  UNL1        0.0744
     50 C          12.3118    4.2870    0.0000 C.3     1  UNL1       -0.0584
     51 C          12.3603    1.9117    0.0000 C.3     1  UNL1       -0.0358
     52 C          14.2417    8.1426    0.0000 C.3     1  UNL1        0.1033
     53 C          15.0222    3.4397    0.0000 C.2     1  UNL1       -0.0836
     54 C          15.1729    7.5856    0.0000 C.3     1  UNL1        0.0830
     55 C          15.0501    5.4744    0.0000 C.3     1  UNL1       -0.0589
     56 C          12.3068    3.6343    0.0000 C.3     1  UNL1        0.0540
     57 C          15.1083    1.3768    0.0000 C.3     1  UNL1       -0.0403
     58 C          13.2416    0.2991    0.0000 C.3     1  UNL1       -0.0362
     59 C          15.1167    0.2919    0.0000 C.3     1  UNL1       -0.0343
     60 C          14.1770   -0.2506    0.0000 C.3     1  UNL1       -0.0468
     61 C          12.2980    7.6112    0.0000 C.3     1  UNL1       -0.0466
     62 C          12.8013    8.4753    0.0000 C.2     1  UNL1        0.3136
     63 C          12.3923    0.8840    0.0000 C.2     1  UNL1        0.3161
     64 C          16.1167    0.2957    0.0000 C.3     1  UNL1       -0.0598
     65 C          15.6200   -0.5722    0.0000 C.3     1  UNL1       -0.0598
     66 C          15.1250    9.6324    0.0000 C.3     1  UNL1        0.1884
     67 C          15.1366   10.6324    0.0000 C.3     1  UNL1        0.1341
     68 C          11.5263   -0.6160    0.0000 C.3     1  UNL1        0.2341
     69 C          16.0084   11.1223    0.0000 C.3     1  UNL1        0.1141
     70 C          16.8570    9.6124    0.0000 C.3     1  UNL1        0.1130
     71 C          11.5263   -1.6160    0.0000 C.3     1  UNL1        0.1531
     72 C          16.8685   10.6124    0.0000 C.3     1  UNL1        0.1119
     73 C          10.6603   -2.1160    0.0000 C.3     1  UNL1        0.1265
     74 C           9.7942   -0.6160    0.0000 C.3     1  UNL1        0.0994
     75 C           9.7942   -1.6160    0.0000 C.3     1  UNL1        0.1575
     76 C          17.7172    9.1024    0.0000 C.3     1  UNL1        0.0730
     77 C           8.9282   -0.1160    0.0000 C.3     1  UNL1       -0.0350
     78 C          12.3923   -3.1160    0.0000 C.3     1  UNL1        0.1885
     79 C          13.2583   -3.6160    0.0000 C.3     1  UNL1        0.1345
     80 C          13.2583   -4.6160    0.0000 C.3     1  UNL1        0.1209
     81 C          11.5263   -4.6160    0.0000 C.3     1  UNL1        0.0877
     82 C           8.0622   -1.6160    0.0000 C.2     1  UNL1        0.3324
     83 C          12.3923   -5.1160    0.0000 C.3     1  UNL1        0.1164
     84 C          10.6603   -5.1160    0.0000 C.3     1  UNL1       -0.0360
     85 C           7.1962   -2.1160    0.0000 C.2     1  UNL1        0.0231
     86 C          14.9904   -4.6160    0.0000 C.3     1  UNL1        0.1884
     87 C          13.2583   -6.6160    0.0000 C.3     1  UNL1        0.1880
     88 C           6.3301   -1.6160    0.0000 C.2     1  UNL1       -0.0478
     89 C          15.9039   -5.0228    0.0000 C.3     1  UNL1        0.1387
     90 C          16.5731   -4.2796    0.0000 C.3     1  UNL1        0.1425
     91 C          13.2583   -7.6160    0.0000 C.3     1  UNL1        0.1341
     92 C          16.0731   -3.4136    0.0000 C.3     1  UNL1        0.0843
     93 C          14.1244   -8.1160    0.0000 C.3     1  UNL1        0.1141
     94 C           5.4641   -2.1160    0.0000 C.ar    1  UNL1       -0.0246
     95 C          14.9904   -6.6160    0.0000 C.3     1  UNL1        0.0796
     96 C          17.4391   -3.7796    0.0000 C.3     1  UNL1        0.0778
     97 C          14.9904   -7.6160    0.0000 C.3     1  UNL1        0.1134
     98 C           5.4641   -3.1160    0.0000 C.ar    1  UNL1       -0.0511
     99 C           4.5981   -1.6160    0.0000 C.ar    1  UNL1       -0.0511
    100 C           4.5981   -3.6160    0.0000 C.ar    1  UNL1       -0.0194
    101 C           3.7320   -2.1160    0.0000 C.ar    1  UNL1       -0.0194
    102 C          15.8564   -9.1160    0.0000 C.3     1  UNL1        0.1884
    103 C           3.7320   -3.1160    0.0000 C.ar    1  UNL1        0.1201
    104 C          16.7224   -9.6160    0.0000 C.3     1  UNL1        0.1341
    105 C          16.7224  -10.6160    0.0000 C.3     1  UNL1        0.1141
    106 C          14.9904  -10.6160    0.0000 C.3     1  UNL1        0.1130
    107 C          15.8564  -11.1160    0.0000 C.3     1  UNL1        0.1119
    108 C          14.1244  -11.1160    0.0000 C.3     1  UNL1        0.0730
    109 C           2.0000   -3.1160    0.0000 C.3     1  UNL1        0.0788
    110 H          14.9104    5.3599    0.0000 H       1  UNL1        0.0315
    111 H          12.5635    6.9502    0.0000 H       1  UNL1        0.0317
    112 H          11.7810    5.0729    0.0000 H       1  UNL1        0.0271
    113 H          12.1828    4.3832    0.0000 H       1  UNL1        0.0271
    114 H          12.1828    6.5922    0.0000 H       1  UNL1        0.0269
    115 H          11.7810    5.9024    0.0000 H       1  UNL1        0.0269
    116 H          14.8916    2.3383    0.0000 H       1  UNL1        0.0357
    117 H          15.6397    4.3273    0.0000 H       1  UNL1        0.0310
    118 H          15.2465    5.0206    0.0000 H       1  UNL1        0.0310
    119 H          15.3433    5.9126    0.0000 H       1  UNL1        0.0296
    120 H          15.7609    6.5929    0.0000 H       1  UNL1        0.0296
    121 H          12.1763    3.5401    0.0000 H       1  UNL1        0.0275
    122 H          11.7639    2.8566    0.0000 H       1  UNL1        0.0275
    123 H          12.2089    4.8984    0.0000 H       1  UNL1        0.0235
    124 H          11.7004    4.1841    0.0000 H       1  UNL1        0.0235
    125 H          12.4147    3.6756    0.0000 H       1  UNL1        0.0235
    126 H          11.7511    2.0272    0.0000 H       1  UNL1        0.0276
    127 H          12.1423    1.3313    0.0000 H       1  UNL1        0.0276
    128 H          13.7078    8.4577    0.0000 H       1  UNL1        0.0634
    129 H          15.5568    3.1256    0.0000 H       1  UNL1        0.0572
    130 H          15.7031    7.2643    0.0000 H       1  UNL1        0.0619
    131 H          14.7319    4.9423    0.0000 H       1  UNL1        0.0235
    132 H          15.5822    5.1561    0.0000 H       1  UNL1        0.0235
    133 H          15.3683    6.0065    0.0000 H       1  UNL1        0.0235
    134 H          12.5233    4.2152    0.0000 H       1  UNL1        0.0566
    135 H          11.7723    3.9484    0.0000 H       1  UNL1        0.0566
    136 H          15.7199    1.2754    0.0000 H       1  UNL1        0.0276
    137 H          15.3128    1.9621    0.0000 H       1  UNL1        0.0276
    138 H          12.6325    0.4146    0.0000 H       1  UNL1        0.0276
    139 H          13.0236   -0.2813    0.0000 H       1  UNL1        0.0276
    140 H          13.7761   -0.7235    0.0000 H       1  UNL1        0.0271
    141 H          14.5743   -0.7266    0.0000 H       1  UNL1        0.0271
    142 H          12.3003    8.2312    0.0000 H       1  UNL1        0.0241
    143 H          11.6780    7.6136    0.0000 H       1  UNL1        0.0241
    144 H          12.2956    6.9912    0.0000 H       1  UNL1        0.0241
    145 H          16.1190   -0.3243    0.0000 H       1  UNL1        0.0235
    146 H          16.7366    0.2981    0.0000 H       1  UNL1        0.0235
    147 H          16.1143    0.9157    0.0000 H       1  UNL1        0.0235
    148 H          15.0843   -0.8843    0.0000 H       1  UNL1        0.0235
    149 H          15.9321   -1.1080    0.0000 H       1  UNL1        0.0235
    150 H          16.1557   -0.2602    0.0000 H       1  UNL1        0.0235
    151 H          16.5793    7.7486    0.0000 H       1  UNL1        0.2099
    152 H          11.0484    2.9856    0.0000 H       1  UNL1        0.2094
    153 H          15.1179    9.0125    0.0000 H       1  UNL1        0.0938
    154 H          11.4934    9.0172    0.0000 H       1  UNL1        0.2951
    155 H          15.1438   11.2523    0.0000 H       1  UNL1        0.0671
    156 H          11.5263    0.0040    0.0000 H       1  UNL1        0.1085
    157 H          16.5488   11.4261    0.0000 H       1  UNL1        0.0648
    158 H          16.8498    8.9925    0.0000 H       1  UNL1        0.0647
    159 H          11.5263   -2.2360    0.0000 H       1  UNL1        0.0687
    160 H          17.4019   10.2962    0.0000 H       1  UNL1        0.0647
    161 H          14.2836   11.7623    0.0000 H       1  UNL1        0.2101
    162 H          10.1233   -2.4260    0.0000 H       1  UNL1        0.0659
    163 H           9.7942    0.0040    0.0000 H       1  UNL1        0.0632
    164 H           9.7942   -2.2360    0.0000 H       1  UNL1        0.0787
    165 H          17.3132    8.6321    0.0000 H       1  UNL1        0.0584
    166 H          18.1102    8.6229    0.0000 H       1  UNL1        0.0584
    167 H          16.5604   12.4260    0.0000 H       1  UNL1        0.2100
    168 H          17.7475   11.7223    0.0000 H       1  UNL1        0.2100
    169 H           9.2382    0.4209    0.0000 H       1  UNL1        0.0256
    170 H           8.3913    0.1940    0.0000 H       1  UNL1        0.0256
    171 H           8.6182   -0.6530    0.0000 H       1  UNL1        0.0256
    172 H          12.9292   -2.8060    0.0000 H       1  UNL1        0.0938
    173 H          10.1233   -3.4260    0.0000 H       1  UNL1        0.2101
    174 H          19.1222    9.2762    0.0000 H       1  UNL1        0.2095
    175 H          13.7953   -3.9260    0.0000 H       1  UNL1        0.0671
    176 H          13.2583   -5.2360    0.0000 H       1  UNL1        0.0651
    177 H          10.9893   -4.3060    0.0000 H       1  UNL1        0.0621
    178 H          11.8554   -5.4260    0.0000 H       1  UNL1        0.0650
    179 H          14.1244   -2.4960    0.0000 H       1  UNL1        0.2101
    180 H          10.3503   -4.5791    0.0000 H       1  UNL1        0.0255
    181 H          10.1233   -5.4260    0.0000 H       1  UNL1        0.0255
    182 H          10.9703   -5.6530    0.0000 H       1  UNL1        0.0255
    183 H           7.1962   -2.7360    0.0000 H       1  UNL1        0.0689
    184 H          15.0228   -5.2352    0.0000 H       1  UNL1        0.0938
    185 H          13.2583   -5.9960    0.0000 H       1  UNL1        0.0937
    186 H           6.3301   -0.9960    0.0000 H       1  UNL1        0.0626
    187 H          16.5028   -5.1832    0.0000 H       1  UNL1        0.0675
    188 H          13.2583   -8.2360    0.0000 H       1  UNL1        0.0671
    189 H          16.6395   -3.1614    0.0000 H       1  UNL1        0.0591
    190 H          15.8815   -2.8240    0.0000 H       1  UNL1        0.0591
    191 H          14.6613   -8.4260    0.0000 H       1  UNL1        0.0648
    192 H          15.6010   -6.7237    0.0000 H       1  UNL1        0.0587
    193 H          15.2024   -6.0334    0.0000 H       1  UNL1        0.0587
    194 H          17.6511   -4.3622    0.0000 H       1  UNL1        0.0587
    195 H          18.0497   -3.6720    0.0000 H       1  UNL1        0.0587
    196 H          15.5273   -7.3060    0.0000 H       1  UNL1        0.0647
    197 H          16.7015   -6.1925    0.0000 H       1  UNL1        0.2101
    198 H          17.9059   -4.7572    0.0000 H       1  UNL1        0.2105
    199 H          12.3923   -8.7360    0.0000 H       1  UNL1        0.2101
    200 H           6.0010   -3.4260    0.0000 H       1  UNL1        0.0625
    201 H           4.5981   -0.9960    0.0000 H       1  UNL1        0.0625
    202 H          13.5874   -9.4260    0.0000 H       1  UNL1        0.2100
    203 H          17.9760   -2.4696    0.0000 H       1  UNL1        0.2095
    204 H           4.5981   -4.2360    0.0000 H       1  UNL1        0.0654
    205 H           3.1951   -1.8060    0.0000 H       1  UNL1        0.0654
    206 H          16.3933   -8.8060    0.0000 H       1  UNL1        0.0938
    207 H          17.2594   -9.9260    0.0000 H       1  UNL1        0.0671
    208 H          17.2594  -10.3060    0.0000 H       1  UNL1        0.0648
    209 H          14.4534  -10.3060    0.0000 H       1  UNL1        0.0647
    210 H          16.3933  -11.4260    0.0000 H       1  UNL1        0.0647
    211 H          18.1254   -9.4260    0.0000 H       1  UNL1        0.2101
    212 H          13.9123  -10.5334    0.0000 H       1  UNL1        0.0584
    213 H          13.5138  -11.2237    0.0000 H       1  UNL1        0.0584
    214 H           2.3100   -2.5791    0.0000 H       1  UNL1        0.0660
    215 H           1.4631   -2.8060    0.0000 H       1  UNL1        0.0660
    216 H           1.6900   -3.6530    0.0000 H       1  UNL1        0.0660
    217 H          17.5885  -11.7360    0.0000 H       1  UNL1        0.2100
    218 H          16.3933  -12.4260    0.0000 H       1  UNL1        0.2100
    219 H          13.5874  -12.4260    0.0000 H       1  UNL1        0.2095
@<TRIPOS>BOND
     1    52     1    1
     2    66     1    1
     3    54     2    1
     4     2   151    1
     5     3    56    1
     6     3   152    1
     7     4    63    1
     8    68     4    1
     9     5    62    1
    10     5   154    1
    11     6    62    2
    12     7    63    2
    13     8    66    1
    14     8    70    1
    15     9    68    1
    16     9    74    1
    17    67    10    1
    18    10   161    1
    19    69    11    1
    20    11   167    1
    21    71    12    1
    22    78    12    1
    23    72    13    1
    24    13   168    1
    25    73    14    1
    26    14   173    1
    27    75    15    1
    28    15    82    1
    29    16    76    1
    30    16   174    1
    31    17    78    1
    32    17    81    1
    33    79    18    1
    34    18   179    1
    35    80    19    1
    36    86    19    1
    37    83    20    1
    38    87    20    1
    39    21    82    2
    40    22    86    1
    41    22    92    1
    42    23    87    1
    43    23    95    1
    44    89    24    1
    45    24   197    1
    46    90    25    1
    47    25   198    1
    48    91    26    1
    49    26   199    1
    50    93    27    1
    51    27   202    1
    52    97    28    1
    53   102    28    1
    54    29    96    1
    55    29   203    1
    56    30   102    1
    57    30   106    1
    58    31   103    1
    59    31   109    1
    60   104    32    1
    61    32   211    1
    62   105    33    1
    63    33   217    1
    64   107    34    1
    65    34   218    1
    66    35   108    1
    67    35   219    1
    68    36    37    1
    69    36    39    1
    70    36    41    1
    71    36    50    1
    72    37    38    1
    73    37    46    1
    74    37   110    1
    75    38    40    1
    76    38    47    1
    77    38    55    1
    78    39    42    1
    79    39    48    1
    80    39    56    1
    81    40    43    1
    82    40    44    1
    83    40   111    1
    84    41    43    1
    85    41   112    1
    86    41   113    1
    87    42    45    1
    88    42    53    2
    89    43   114    1
    90    43   115    1
    91    44    52    1
    92    44    61    1
    93    44    62    1
    94    45    49    1
    95    45    57    1
    96    45   116    1
    97    46    53    1
    98    46   117    1
    99    46   118    1
   100    47    54    1
   101    47   119    1
   102    47   120    1
   103    48    51    1
   104    48   121    1
   105    48   122    1
   106    49    51    1
   107    49    58    1
   108    49    63    1
   109    50   123    1
   110    50   124    1
   111    50   125    1
   112    51   126    1
   113    51   127    1
   114    52    54    1
   115    52   128    1
   116    53   129    1
   117    54   130    1
   118    55   131    1
   119    55   132    1
   120    55   133    1
   121    56   134    1
   122    56   135    1
   123    57    59    1
   124    57   136    1
   125    57   137    1
   126    58    60    1
   127    58   138    1
   128    58   139    1
   129    59    60    1
   130    59    64    1
   131    59    65    1
   132    60   140    1
   133    60   141    1
   134    61   142    1
   135    61   143    1
   136    61   144    1
   137    64   145    1
   138    64   146    1
   139    64   147    1
   140    65   148    1
   141    65   149    1
   142    65   150    1
   143    66    67    1
   144    66   153    1
   145    67    69    1
   146    67   155    1
   147    68    71    1
   148    68   156    1
   149    69    72    1
   150    69   157    1
   151    70    72    1
   152    70    76    1
   153    70   158    1
   154    71    73    1
   155    71   159    1
   156    72   160    1
   157    73    75    1
   158    73   162    1
   159    74    75    1
   160    74    77    1
   161    74   163    1
   162    75   164    1
   163    76   165    1
   164    76   166    1
   165    77   169    1
   166    77   170    1
   167    77   171    1
   168    78    79    1
   169    78   172    1
   170    79    80    1
   171    79   175    1
   172    80    83    1
   173    80   176    1
   174    81    83    1
   175    81    84    1
   176    81   177    1
   177    82    85    1
   178    83   178    1
   179    84   180    1
   180    84   181    1
   181    84   182    1
   182    85    88    2
   183    85   183    1
   184    86    89    1
   185    86   184    1
   186    87    91    1
   187    87   185    1
   188    88    94    1
   189    88   186    1
   190    89    90    1
   191    89   187    1
   192    90    92    1
   193    90    96    1
   194    91    93    1
   195    91   188    1
   196    92   189    1
   197    92   190    1
   198    93    97    1
   199    93   191    1
   200    94    98   ar
   201    94    99   ar
   202    95    97    1
   203    95   192    1
   204    95   193    1
   205    96   194    1
   206    96   195    1
   207    97   196    1
   208    98   100   ar
   209    98   200    1
   210    99   101   ar
   211    99   201    1
   212   100   103   ar
   213   100   204    1
   214   101   103   ar
   215   101   205    1
   216   102   104    1
   217   102   206    1
   218   104   105    1
   219   104   207    1
   220   105   107    1
   221   105   208    1
   222   106   107    1
   223   106   108    1
   224   106   209    1
   225   107   210    1
   226   108   212    1
   227   108   213    1
   228   109   214    1
   229   109   215    1
   230   109   216    1
