@<TRIPOS>MOLECULE
IMPHY017705
 61 60 0 0 0
SMALL
GASTEIGER

@<TRIPOS>ATOM
      1 O          15.8564    0.2500    0.0000 O.2     1  UNL1       -0.5114
      2 C          13.2583   -0.2500    0.0000 C.3     1  UNL1       -0.0108
      3 C          12.3923   -0.7500    0.0000 C.3     1  UNL1       -0.0441
      4 C          11.5263   -0.2500    0.0000 C.3     1  UNL1       -0.0523
      5 C          10.6603   -0.7500    0.0000 C.3     1  UNL1       -0.0530
      6 C           9.7942   -0.2500    0.0000 C.3     1  UNL1       -0.0531
      7 C          14.1244    0.2500    0.0000 C.2     1  UNL1       -0.0301
      8 C           8.9282   -0.7500    0.0000 C.3     1  UNL1       -0.0531
      9 C          12.7583    0.6160    0.0000 C.3     1  UNL1       -0.0560
     10 C          13.7583   -1.1160    0.0000 C.3     1  UNL1       -0.0560
     11 C           8.0622   -0.2500    0.0000 C.3     1  UNL1       -0.0531
     12 C           7.1962   -0.7500    0.0000 C.3     1  UNL1       -0.0531
     13 C           6.3301   -0.2500    0.0000 C.3     1  UNL1       -0.0531
     14 C           5.4641   -0.7500    0.0000 C.3     1  UNL1       -0.0531
     15 C          14.1244    1.2500    0.0000 C.3     1  UNL1       -0.0399
     16 C           4.5981   -0.2500    0.0000 C.3     1  UNL1       -0.0531
     17 C          14.9904   -0.2500    0.0000 C.2     1  UNL1        0.0905
     18 C           3.7320   -0.7500    0.0000 C.3     1  UNL1       -0.0533
     19 C           2.8660   -0.2500    0.0000 C.3     1  UNL1       -0.0559
     20 C          14.9904   -1.2500    0.0000 C.3     1  UNL1       -0.0072
     21 C           2.0000   -0.7500    0.0000 C.3     1  UNL1       -0.0653
     22 H          11.9938   -1.2250    0.0000 H       1  UNL1        0.0273
     23 H          12.7908   -1.2250    0.0000 H       1  UNL1        0.0273
     24 H          11.9248    0.2249    0.0000 H       1  UNL1        0.0266
     25 H          11.1278    0.2249    0.0000 H       1  UNL1        0.0266
     26 H          10.2617   -1.2250    0.0000 H       1  UNL1        0.0265
     27 H          11.0588   -1.2250    0.0000 H       1  UNL1        0.0265
     28 H          10.1928    0.2249    0.0000 H       1  UNL1        0.0265
     29 H           9.3957    0.2249    0.0000 H       1  UNL1        0.0265
     30 H           8.5297   -1.2250    0.0000 H       1  UNL1        0.0265
     31 H           9.3267   -1.2250    0.0000 H       1  UNL1        0.0265
     32 H          13.2953    0.9260    0.0000 H       1  UNL1        0.0238
     33 H          12.4483    1.1530    0.0000 H       1  UNL1        0.0238
     34 H          12.2214    0.3060    0.0000 H       1  UNL1        0.0238
     35 H          13.2214   -1.4260    0.0000 H       1  UNL1        0.0238
     36 H          14.0683   -1.6530    0.0000 H       1  UNL1        0.0238
     37 H          14.2953   -0.8060    0.0000 H       1  UNL1        0.0238
     38 H           8.4607    0.2249    0.0000 H       1  UNL1        0.0265
     39 H           7.6636    0.2249    0.0000 H       1  UNL1        0.0265
     40 H           6.7976   -1.2250    0.0000 H       1  UNL1        0.0265
     41 H           7.5947   -1.2250    0.0000 H       1  UNL1        0.0265
     42 H           6.7287    0.2249    0.0000 H       1  UNL1        0.0265
     43 H           5.9316    0.2249    0.0000 H       1  UNL1        0.0265
     44 H           5.0656   -1.2250    0.0000 H       1  UNL1        0.0265
     45 H           5.8626   -1.2250    0.0000 H       1  UNL1        0.0265
     46 H          14.7444    1.2500    0.0000 H       1  UNL1        0.0276
     47 H          14.1244    1.8700    0.0000 H       1  UNL1        0.0276
     48 H          13.5044    1.2500    0.0000 H       1  UNL1        0.0276
     49 H           4.9966    0.2249    0.0000 H       1  UNL1        0.0265
     50 H           4.1996    0.2249    0.0000 H       1  UNL1        0.0265
     51 H           3.3335   -1.2250    0.0000 H       1  UNL1        0.0265
     52 H           4.1306   -1.2250    0.0000 H       1  UNL1        0.0265
     53 H           3.2646    0.2249    0.0000 H       1  UNL1        0.0263
     54 H           2.4675    0.2249    0.0000 H       1  UNL1        0.0263
     55 H          14.3704   -1.2500    0.0000 H       1  UNL1        0.0307
     56 H          14.9904   -1.8700    0.0000 H       1  UNL1        0.0307
     57 H          15.6104   -1.2500    0.0000 H       1  UNL1        0.0307
     58 H          16.3933   -0.0600    0.0000 H       1  UNL1        0.2916
     59 H           1.6900   -0.2131    0.0000 H       1  UNL1        0.0230
     60 H           1.4631   -1.0600    0.0000 H       1  UNL1        0.0230
     61 H           2.3100   -1.2869    0.0000 H       1  UNL1        0.0230
@<TRIPOS>BOND
     1     1    17    1
     2     1    58    1
     3     2     3    1
     4     2     7    1
     5     2     9    1
     6     2    10    1
     7     3     4    1
     8     3    22    1
     9     3    23    1
    10     4     5    1
    11     4    24    1
    12     4    25    1
    13     5     6    1
    14     5    26    1
    15     5    27    1
    16     6     8    1
    17     6    28    1
    18     6    29    1
    19     7    15    1
    20     7    17    2
    21     8    11    1
    22     8    30    1
    23     8    31    1
    24     9    32    1
    25     9    33    1
    26     9    34    1
    27    10    35    1
    28    10    36    1
    29    10    37    1
    30    11    12    1
    31    11    38    1
    32    11    39    1
    33    12    13    1
    34    12    40    1
    35    12    41    1
    36    13    14    1
    37    13    42    1
    38    13    43    1
    39    14    16    1
    40    14    44    1
    41    14    45    1
    42    15    46    1
    43    15    47    1
    44    15    48    1
    45    16    18    1
    46    16    49    1
    47    16    50    1
    48    17    20    1
    49    18    19    1
    50    18    51    1
    51    18    52    1
    52    19    21    1
    53    19    53    1
    54    19    54    1
    55    20    55    1
    56    20    56    1
    57    20    57    1
    58    21    59    1
    59    21    60    1
    60    21    61    1
