@<TRIPOS>MOLECULE
IMPHY009735
 40 39 0 0 0
SMALL
GASTEIGER

@<TRIPOS>ATOM
      1 O          10.6603    1.9400    0.0000 O.2     1  UNL1       -0.5143
      2 C           4.5981    0.4400    0.0000 C.3     1  UNL1       -0.0286
      3 C           4.5981    1.4400    0.0000 C.2     1  UNL1       -0.0762
      4 C           3.7320   -0.0600    0.0000 C.3     1  UNL1       -0.0308
      5 C           6.3301    1.4400    0.0000 C.3     1  UNL1       -0.0305
      6 C           5.4641    1.9400    0.0000 C.2     1  UNL1       -0.0847
      7 C           7.1962    1.9400    0.0000 C.3     1  UNL1       -0.0247
      8 C           3.7320   -1.0600    0.0000 C.2     1  UNL1       -0.0850
      9 C           3.7320    1.9400    0.0000 C.3     1  UNL1       -0.0438
     10 C           2.8660   -1.5600    0.0000 C.2     1  UNL1       -0.0796
     11 C           8.0622    1.4400    0.0000 C.2     1  UNL1       -0.0513
     12 C           2.8660   -2.5600    0.0000 C.3     1  UNL1       -0.0440
     13 C           2.0000   -1.0600    0.0000 C.3     1  UNL1       -0.0440
     14 C           8.9282    1.9400    0.0000 C.2     1  UNL1       -0.0250
     15 C           8.0622    0.4400    0.0000 C.2     1  UNL1       -0.0954
     16 C           9.7942    1.4400    0.0000 C.2     1  UNL1        0.0811
     17 H           4.8101   -0.1426    0.0000 H       1  UNL1        0.0313
     18 H           5.2087    0.5477    0.0000 H       1  UNL1        0.0313
     19 H           3.5200    0.5226    0.0000 H       1  UNL1        0.0310
     20 H           3.1215   -0.1677    0.0000 H       1  UNL1        0.0310
     21 H           5.9316    0.9651    0.0000 H       1  UNL1        0.0311
     22 H           6.7287    0.9651    0.0000 H       1  UNL1        0.0311
     23 H           5.4641    2.5600    0.0000 H       1  UNL1        0.0572
     24 H           7.5947    2.4150    0.0000 H       1  UNL1        0.0316
     25 H           6.7976    2.4150    0.0000 H       1  UNL1        0.0316
     26 H           4.2690   -1.3700    0.0000 H       1  UNL1        0.0572
     27 H           4.0420    2.4769    0.0000 H       1  UNL1        0.0274
     28 H           3.1951    2.2500    0.0000 H       1  UNL1        0.0274
     29 H           3.4220    1.4031    0.0000 H       1  UNL1        0.0274
     30 H           2.3100   -0.5231    0.0000 H       1  UNL1        0.0274
     31 H           2.2460   -2.5600    0.0000 H       1  UNL1        0.0274
     32 H           2.8660   -3.1800    0.0000 H       1  UNL1        0.0274
     33 H           3.4860   -2.5600    0.0000 H       1  UNL1        0.0274
     34 H           1.4631   -0.7500    0.0000 H       1  UNL1        0.0274
     35 H           1.6900   -1.5969    0.0000 H       1  UNL1        0.0274
     36 H           8.9282    2.5600    0.0000 H       1  UNL1        0.0650
     37 H           7.5252    0.1300    0.0000 H       1  UNL1        0.0537
     38 H           8.5991    0.1300    0.0000 H       1  UNL1        0.0537
     39 H           9.7942    0.8200    0.0000 H       1  UNL1        0.1021
     40 H          11.1972    1.6300    0.0000 H       1  UNL1        0.2912
@<TRIPOS>BOND
     1     1    16    1
     2     1    40    1
     3     2     3    1
     4     2     4    1
     5     2    17    1
     6     2    18    1
     7     3     6    2
     8     3     9    1
     9     4     8    1
    10     4    19    1
    11     4    20    1
    12     5     6    1
    13     5     7    1
    14     5    21    1
    15     5    22    1
    16     6    23    1
    17     7    11    1
    18     7    24    1
    19     7    25    1
    20     8    10    2
    21     8    26    1
    22     9    27    1
    23     9    28    1
    24     9    29    1
    25    10    12    1
    26    10    13    1
    27    11    14    1
    28    11    15    2
    29    12    31    1
    30    12    32    1
    31    12    33    1
    32    13    30    1
    33    13    34    1
    34    13    35    1
    35    14    16    2
    36    14    36    1
    37    15    37    1
    38    15    38    1
    39    16    39    1
