@<TRIPOS>MOLECULE
IMPHY008408
 39 42 0 0 0
SMALL
GASTEIGER

@<TRIPOS>ATOM
      1 O           3.7782    1.4952    0.0000 O.3     1  UNL1       -0.4907
      2 O           7.3180    1.5088    0.0000 O.3     1  UNL1       -0.4907
      3 O           5.5442    2.5330    0.0000 O.3     1  UNL1       -0.4885
      4 O           4.6660   -3.0363    0.0000 O.2     1  UNL1       -0.2850
      5 N           6.3903   -2.0332    0.0000 N.ar    1  UNL1       -0.2511
      6 C           5.5321   -0.5363    0.0000 C.ar    1  UNL1        0.0262
      7 C           4.6660   -0.0363    0.0000 C.ar    1  UNL1        0.0382
      8 C           3.8000   -0.5363    0.0000 C.ar    1  UNL1       -0.0027
      9 C           6.4421   -0.0294    0.0000 C.ar    1  UNL1        0.0318
     10 C           5.5321   -1.5363    0.0000 C.ar    1  UNL1        0.1194
     11 C           3.8000   -1.5363    0.0000 C.ar    1  UNL1        0.0317
     12 C           4.6500    1.0052    0.0000 C.ar    1  UNL1        0.1735
     13 C           6.4501    1.0122    0.0000 C.ar    1  UNL1        0.1730
     14 C           4.6660   -2.0363    0.0000 C.2     1  UNL1        0.2124
     15 C           5.5480    1.5330    0.0000 C.ar    1  UNL1        0.2048
     16 C           7.2814   -0.5577    0.0000 C.ar    1  UNL1       -0.0322
     17 C           2.9061   -0.0016    0.0000 C.ar    1  UNL1       -0.0532
     18 C           2.9061   -2.0710    0.0000 C.ar    1  UNL1       -0.0503
     19 C           7.2558   -1.5490    0.0000 C.ar    1  UNL1        0.0291
     20 C           2.0000   -0.5155    0.0000 C.ar    1  UNL1       -0.0611
     21 C           2.0000   -1.5571    0.0000 C.ar    1  UNL1       -0.0610
     22 C           3.7667    2.4951    0.0000 C.3     1  UNL1        0.0790
     23 C           7.3219    2.5088    0.0000 C.3     1  UNL1        0.0790
     24 C           6.4082    3.0363    0.0000 C.3     1  UNL1        0.0791
     25 H           7.8280   -0.2650    0.0000 H       1  UNL1        0.0640
     26 H           2.9132    0.6183    0.0000 H       1  UNL1        0.0624
     27 H           2.9132   -2.6909    0.0000 H       1  UNL1        0.0625
     28 H           7.7865   -1.8696    0.0000 H       1  UNL1        0.0830
     29 H           1.4643   -0.2034    0.0000 H       1  UNL1        0.0618
     30 H           1.4643   -1.8692    0.0000 H       1  UNL1        0.0618
     31 H           4.3866    2.5023    0.0000 H       1  UNL1        0.0660
     32 H           3.7595    3.1151    0.0000 H       1  UNL1        0.0660
     33 H           3.1467    2.4879    0.0000 H       1  UNL1        0.0660
     34 H           7.9419    2.5064    0.0000 H       1  UNL1        0.0660
     35 H           7.3243    3.1288    0.0000 H       1  UNL1        0.0660
     36 H           6.7019    2.5112    0.0000 H       1  UNL1        0.0660
     37 H           6.7203    2.5006    0.0000 H       1  UNL1        0.0660
     38 H           6.9440    3.3484    0.0000 H       1  UNL1        0.0660
     39 H           6.0962    3.5720    0.0000 H       1  UNL1        0.0660
@<TRIPOS>BOND
     1     1    12    1
     2     1    22    1
     3     2    13    1
     4     2    23    1
     5     3    15    1
     6     3    24    1
     7     4    14    2
     8     5    10   ar
     9     5    19   ar
    10     6     7   ar
    11     6     9   ar
    12     6    10   ar
    13     7     8    1
    14     7    12   ar
    15     8    11   ar
    16     8    17   ar
    17     9    13   ar
    18     9    16   ar
    19    10    14    1
    20    11    14    1
    21    11    18   ar
    22    12    15   ar
    23    13    15   ar
    24    16    19   ar
    25    16    25    1
    26    17    20   ar
    27    17    26    1
    28    18    21   ar
    29    18    27    1
    30    19    28    1
    31    20    21   ar
    32    20    29    1
    33    21    30    1
    34    22    31    1
    35    22    32    1
    36    22    33    1
    37    23    34    1
    38    23    35    1
    39    23    36    1
    40    24    37    1
    41    24    38    1
    42    24    39    1
