@<TRIPOS>MOLECULE
IMPHY001753
 155 164 0 0 0
SMALL
GASTEIGER

@<TRIPOS>ATOM
      1 O          15.2184    6.2903    0.0000 O.3     1  UNL1       -0.3448
      2 O          13.4459    7.1851    0.0000 O.3     1  UNL1       -0.3480
      3 O          13.7953   -1.9538    0.0000 O.3     1  UNL1       -0.3451
      4 O          12.0632   -1.9538    0.0000 O.3     1  UNL1       -0.3405
      5 O          13.7953   -3.9538    0.0000 O.3     1  UNL1       -0.3841
      6 O          12.0632   -4.9538    0.0000 O.3     1  UNL1       -0.3864
      7 O          10.3312   -3.9538    0.0000 O.3     1  UNL1       -0.3865
      8 O           9.4651   -2.4538    0.0000 O.3     1  UNL1       -0.3460
      9 O           8.5991   -0.9537    0.0000 O.3     1  UNL1       -0.3431
     10 O           7.7331   -3.4538    0.0000 O.3     1  UNL1       -0.3378
     11 O           6.0010   -2.4538    0.0000 O.3     1  UNL1       -0.3864
     12 O           6.0010   -0.4537    0.0000 O.3     1  UNL1       -0.3866
     13 O           6.0010   -3.4538    0.0000 O.3     1  UNL1       -0.3405
     14 O           4.2690   -5.4538    0.0000 O.3     1  UNL1       -0.3401
     15 O           7.7331   -5.4538    0.0000 O.3     1  UNL1       -0.3841
     16 O           6.0010   -6.4538    0.0000 O.3     1  UNL1       -0.3864
     17 O           5.1350   -6.9538    0.0000 O.3     1  UNL1       -0.3405
     18 O           3.4030   -3.9538    0.0000 O.3     1  UNL1       -0.3924
     19 O           2.5369   -6.4538    0.0000 O.3     1  UNL1       -0.3841
     20 O           2.5369   -8.4538    0.0000 O.3     1  UNL1       -0.3864
     21 O           4.2690   -9.4538    0.0000 O.3     1  UNL1       -0.3865
     22 O           6.0010   -9.4538    0.0000 O.3     1  UNL1       -0.3924
     23 C          13.8245    4.2431    0.0000 C.3     1  UNL1       -0.0233
     24 C          14.6925    3.7465    0.0000 C.3     1  UNL1       -0.0295
     25 C          14.0300    5.2157    0.0000 C.3     1  UNL1       -0.0015
     26 C          14.6963    2.7465    0.0000 C.3     1  UNL1       -0.0306
     27 C          15.0183    5.3226    0.0000 C.3     1  UNL1        0.0660
     28 C          13.8322    2.2431    0.0000 C.3     1  UNL1       -0.0285
     29 C          15.4269    4.4164    0.0000 C.3     1  UNL1       -0.0226
     30 C          12.9604    3.7398    0.0000 C.3     1  UNL1       -0.0467
     31 C          13.6277    6.1183    0.0000 C.3     1  UNL1        0.0160
     32 C          12.9643    2.7398    0.0000 C.3     1  UNL1       -0.0486
     33 C          13.8202    1.2016    0.0000 C.3     1  UNL1       -0.0078
     34 C          14.3607    6.7811    0.0000 C.3     1  UNL1        0.1732
     35 C          12.9566    4.7398    0.0000 C.3     1  UNL1       -0.0590
     36 C          15.6083    2.2431    0.0000 C.3     1  UNL1       -0.0311
     37 C          14.7203    0.6773    0.0000 C.2     1  UNL1       -0.0648
     38 C          12.8703    0.6773    0.0000 C.3     1  UNL1       -0.0413
     39 C          12.6493    6.3250    0.0000 C.3     1  UNL1       -0.0572
     40 C          15.1679    7.3713    0.0000 C.3     1  UNL1        0.0020
     41 C          15.6203    1.2016    0.0000 C.2     1  UNL1       -0.0839
     42 C          12.9561    1.7049    0.0000 C.3     1  UNL1       -0.0556
     43 C          14.7328   -0.4076    0.0000 C.3     1  UNL1       -0.0047
     44 C          12.8577   -0.4076    0.0000 C.3     1  UNL1       -0.0254
     45 C          13.7953   -0.9537    0.0000 C.3     1  UNL1        0.0655
     46 C          15.0604    8.3655    0.0000 C.3     1  UNL1       -0.0435
     47 C          14.1457    8.7695    0.0000 C.3     1  UNL1       -0.0201
     48 C          13.3384    8.1793    0.0000 C.3     1  UNL1        0.0535
     49 C          14.0382    9.7638    0.0000 C.3     1  UNL1       -0.0603
     50 C          12.9292   -2.4538    0.0000 C.3     1  UNL1        0.1882
     51 C          12.9292   -3.4538    0.0000 C.3     1  UNL1        0.1341
     52 C          12.0632   -3.9538    0.0000 C.3     1  UNL1        0.1141
     53 C          11.1972   -2.4538    0.0000 C.3     1  UNL1        0.1134
     54 C          11.1972   -3.4538    0.0000 C.3     1  UNL1        0.1119
     55 C          10.3312   -1.9538    0.0000 C.3     1  UNL1        0.0796
     56 C           8.5991   -1.9538    0.0000 C.3     1  UNL1        0.1883
     57 C           7.7331   -2.4538    0.0000 C.3     1  UNL1        0.1406
     58 C           6.8671   -1.9538    0.0000 C.3     1  UNL1        0.1143
     59 C           7.7331   -0.4537    0.0000 C.3     1  UNL1        0.0873
     60 C           6.8671   -0.9537    0.0000 C.3     1  UNL1        0.1095
     61 C           6.8671   -3.9538    0.0000 C.3     1  UNL1        0.1885
     62 C           7.7331    0.5463    0.0000 C.3     1  UNL1       -0.0361
     63 C           6.8671   -4.9538    0.0000 C.3     1  UNL1        0.1341
     64 C           6.0010   -5.4538    0.0000 C.3     1  UNL1        0.1144
     65 C           5.1350   -4.9538    0.0000 C.3     1  UNL1        0.1184
     66 C           5.1350   -3.9538    0.0000 C.3     1  UNL1        0.1134
     67 C           4.2690   -3.4538    0.0000 C.3     1  UNL1        0.0730
     68 C           4.2690   -6.4538    0.0000 C.3     1  UNL1        0.1884
     69 C           3.4030   -6.9538    0.0000 C.3     1  UNL1        0.1341
     70 C           3.4030   -7.9538    0.0000 C.3     1  UNL1        0.1141
     71 C           4.2690   -8.4538    0.0000 C.3     1  UNL1        0.1119
     72 C           5.1350   -7.9538    0.0000 C.3     1  UNL1        0.1130
     73 C           6.0010   -8.4538    0.0000 C.3     1  UNL1        0.0730
     74 H          15.4708    3.4048    0.0000 H       1  UNL1        0.0310
     75 H          13.1847    5.1262    0.0000 H       1  UNL1        0.0335
     76 H          15.4275    3.1800    0.0000 H       1  UNL1        0.0310
     77 H          15.8632    5.4158    0.0000 H       1  UNL1        0.0600
     78 H          14.5667    1.8153    0.0000 H       1  UNL1        0.0312
     79 H          15.7943    3.9170    0.0000 H       1  UNL1        0.0293
     80 H          15.9622    4.7292    0.0000 H       1  UNL1        0.0293
     81 H          12.7461    4.3216    0.0000 H       1  UNL1        0.0271
     82 H          12.3503    3.6298    0.0000 H       1  UNL1        0.0271
     83 H          13.4063    6.9390    0.0000 H       1  UNL1        0.0354
     84 H          12.3533    2.8451    0.0000 H       1  UNL1        0.0268
     85 H          12.7545    2.1564    0.0000 H       1  UNL1        0.0268
     86 H          13.2645    5.2779    0.0000 H       1  UNL1        0.0235
     87 H          12.4185    5.0477    0.0000 H       1  UNL1        0.0235
     88 H          12.6487    4.2017    0.0000 H       1  UNL1        0.0235
     89 H          16.2203    2.1441    0.0000 H       1  UNL1        0.0310
     90 H          15.8106    2.8292    0.0000 H       1  UNL1        0.0310
     91 H          12.6680    1.2634    0.0000 H       1  UNL1        0.0274
     92 H          12.2582    0.5783    0.0000 H       1  UNL1        0.0274
     93 H          12.7774    6.9316    0.0000 H       1  UNL1        0.0234
     94 H          12.0427    6.4532    0.0000 H       1  UNL1        0.0234
     95 H          12.5211    5.7184    0.0000 H       1  UNL1        0.0234
     96 H          15.4414    6.8149    0.0000 H       1  UNL1        0.0317
     97 H          15.7634    7.5440    0.0000 H       1  UNL1        0.0317
     98 H          16.1596    0.8957    0.0000 H       1  UNL1        0.0572
     99 H          13.2682    2.2406    0.0000 H       1  UNL1        0.0238
    100 H          12.4204    2.0170    0.0000 H       1  UNL1        0.0238
    101 H          12.6440    1.1692    0.0000 H       1  UNL1        0.0238
    102 H          14.9486   -0.9889    0.0000 H       1  UNL1        0.0335
    103 H          15.3424   -0.2945    0.0000 H       1  UNL1        0.0335
    104 H          12.2481   -0.2945    0.0000 H       1  UNL1        0.0290
    105 H          12.6419   -0.9889    0.0000 H       1  UNL1        0.0290
    106 H          14.5322   -1.3773    0.0000 H       1  UNL1        0.0600
    107 H          15.6790    8.3241    0.0000 H       1  UNL1        0.0270
    108 H          15.2086    8.9676    0.0000 H       1  UNL1        0.0270
    109 H          13.3681    9.1130    0.0000 H       1  UNL1        0.0320
    110 H          13.0649    8.7358    0.0000 H       1  UNL1        0.0563
    111 H          12.7429    8.0067    0.0000 H       1  UNL1        0.0563
    112 H          14.6546    9.8304    0.0000 H       1  UNL1        0.0233
    113 H          13.9715   10.3802    0.0000 H       1  UNL1        0.0233
    114 H          13.4217    9.6971    0.0000 H       1  UNL1        0.0233
    115 H          13.6654   -2.8788    0.0000 H       1  UNL1        0.0937
    116 H          12.9292   -4.3038    0.0000 H       1  UNL1        0.0671
    117 H          11.3271   -4.3788    0.0000 H       1  UNL1        0.0648
    118 H          11.1972   -1.6038    0.0000 H       1  UNL1        0.0647
    119 H          10.4611   -3.0288    0.0000 H       1  UNL1        0.0647
    120 H          13.7953   -4.5738    0.0000 H       1  UNL1        0.2101
    121 H          10.7297   -1.4788    0.0000 H       1  UNL1        0.0587
    122 H           9.9326   -1.4788    0.0000 H       1  UNL1        0.0587
    123 H          11.5263   -5.2638    0.0000 H       1  UNL1        0.2100
    124 H          10.3312   -4.5738    0.0000 H       1  UNL1        0.2100
    125 H           8.5991   -2.8038    0.0000 H       1  UNL1        0.0937
    126 H           6.9970   -2.8788    0.0000 H       1  UNL1        0.0675
    127 H           6.1309   -1.5288    0.0000 H       1  UNL1        0.0648
    128 H           8.4692   -0.0287    0.0000 H       1  UNL1        0.0621
    129 H           6.8671   -0.1037    0.0000 H       1  UNL1        0.0646
    130 H           7.6032   -4.3788    0.0000 H       1  UNL1        0.0938
    131 H           8.3531    0.5463    0.0000 H       1  UNL1        0.0255
    132 H           7.7331    1.1662    0.0000 H       1  UNL1        0.0255
    133 H           7.1131    0.5463    0.0000 H       1  UNL1        0.0255
    134 H           5.4641   -2.1438    0.0000 H       1  UNL1        0.2100
    135 H           6.8671   -5.8038    0.0000 H       1  UNL1        0.0671
    136 H           6.0010    0.1663    0.0000 H       1  UNL1        0.2100
    137 H           5.2649   -5.8788    0.0000 H       1  UNL1        0.0648
    138 H           4.3989   -4.5287    0.0000 H       1  UNL1        0.0651
    139 H           5.1350   -3.1037    0.0000 H       1  UNL1        0.0647
    140 H           4.6675   -2.9788    0.0000 H       1  UNL1        0.0584
    141 H           3.8705   -2.9788    0.0000 H       1  UNL1        0.0584
    142 H           7.7331   -6.0738    0.0000 H       1  UNL1        0.2101
    143 H           3.5329   -6.0287    0.0000 H       1  UNL1        0.0938
    144 H           6.5380   -6.7638    0.0000 H       1  UNL1        0.2100
    145 H           4.1391   -7.3788    0.0000 H       1  UNL1        0.0671
    146 H           3.4030   -8.8038    0.0000 H       1  UNL1        0.0648
    147 H           5.0051   -8.8788    0.0000 H       1  UNL1        0.0647
    148 H           5.8711   -7.5288    0.0000 H       1  UNL1        0.0647
    149 H           3.4030   -4.5738    0.0000 H       1  UNL1        0.2095
    150 H           6.6116   -8.5614    0.0000 H       1  UNL1        0.0584
    151 H           6.2131   -7.8711    0.0000 H       1  UNL1        0.0584
    152 H           2.0000   -6.7638    0.0000 H       1  UNL1        0.2101
    153 H           2.5369   -9.0738    0.0000 H       1  UNL1        0.2100
    154 H           3.7320   -9.7638    0.0000 H       1  UNL1        0.2100
    155 H           6.5380   -9.7638    0.0000 H       1  UNL1        0.2095
@<TRIPOS>BOND
     1     1    27    1
     2     1    34    1
     3     2    34    1
     4     2    48    1
     5     3    45    1
     6     3    50    1
     7     4    50    1
     8     4    53    1
     9     5    51    1
    10     5   120    1
    11     6    52    1
    12     6   123    1
    13     7    54    1
    14     7   124    1
    15     8    55    1
    16     8    56    1
    17     9    56    1
    18     9    59    1
    19    10    57    1
    20    10    61    1
    21    11    58    1
    22    11   134    1
    23    12    60    1
    24    12   136    1
    25    13    61    1
    26    13    66    1
    27    14    65    1
    28    14    68    1
    29    15    63    1
    30    15   142    1
    31    16    64    1
    32    16   144    1
    33    17    68    1
    34    17    72    1
    35    18    67    1
    36    18   149    1
    37    19    69    1
    38    19   152    1
    39    20    70    1
    40    20   153    1
    41    21    71    1
    42    21   154    1
    43    22    73    1
    44    22   155    1
    45    23    24    1
    46    23    25    1
    47    23    30    1
    48    23    35    1
    49    24    26    1
    50    24    29    1
    51    24    74    1
    52    25    27    1
    53    25    31    1
    54    25    75    1
    55    26    28    1
    56    26    36    1
    57    26    76    1
    58    27    29    1
    59    27    77    1
    60    28    32    1
    61    28    33    1
    62    28    78    1
    63    29    79    1
    64    29    80    1
    65    30    32    1
    66    30    81    1
    67    30    82    1
    68    31    34    1
    69    31    39    1
    70    31    83    1
    71    32    84    1
    72    32    85    1
    73    33    37    1
    74    33    38    1
    75    33    42    1
    76    34    40    1
    77    35    86    1
    78    35    87    1
    79    35    88    1
    80    36    41    1
    81    36    89    1
    82    36    90    1
    83    37    41    2
    84    37    43    1
    85    38    44    1
    86    38    91    1
    87    38    92    1
    88    39    93    1
    89    39    94    1
    90    39    95    1
    91    40    46    1
    92    40    96    1
    93    40    97    1
    94    41    98    1
    95    42    99    1
    96    42   100    1
    97    42   101    1
    98    43    45    1
    99    43   102    1
   100    43   103    1
   101    44    45    1
   102    44   104    1
   103    44   105    1
   104    45   106    1
   105    46    47    1
   106    46   107    1
   107    46   108    1
   108    47    48    1
   109    47    49    1
   110    47   109    1
   111    48   110    1
   112    48   111    1
   113    49   112    1
   114    49   113    1
   115    49   114    1
   116    50    51    1
   117    50   115    1
   118    51    52    1
   119    51   116    1
   120    52    54    1
   121    52   117    1
   122    53    54    1
   123    53    55    1
   124    53   118    1
   125    54   119    1
   126    55   121    1
   127    55   122    1
   128    56    57    1
   129    56   125    1
   130    57    58    1
   131    57   126    1
   132    58    60    1
   133    58   127    1
   134    59    60    1
   135    59    62    1
   136    59   128    1
   137    60   129    1
   138    61    63    1
   139    61   130    1
   140    62   131    1
   141    62   132    1
   142    62   133    1
   143    63    64    1
   144    63   135    1
   145    64    65    1
   146    64   137    1
   147    65    66    1
   148    65   138    1
   149    66    67    1
   150    66   139    1
   151    67   140    1
   152    67   141    1
   153    68    69    1
   154    68   143    1
   155    69    70    1
   156    69   145    1
   157    70    71    1
   158    70   146    1
   159    71    72    1
   160    71   147    1
   161    72    73    1
   162    72   148    1
   163    73   150    1
   164    73   151    1
