@<TRIPOS>MOLECULE
IMPHY014698
 42 46 0 0 0
SMALL
GASTEIGER

@<TRIPOS>ATOM
      1 O           2.0000    1.9204    0.0000 O.3     1  UNL1       -0.4607
      2 O           5.1308   -2.8380    0.0000 O.3     1  UNL1       -0.4526
      3 O           3.6001   -3.3353    0.0000 O.3     1  UNL1       -0.4526
      4 O           2.4612    3.6417    0.0000 O.2     1  UNL1       -0.2453
      5 O           7.9930    2.5616    0.0000 O.3     1  UNL1       -0.4526
      6 O           7.9930    0.9521    0.0000 O.3     1  UNL1       -0.4526
      7 C           3.4782    1.2623    0.0000 C.3     1  UNL1        0.0291
      8 C           4.2213    0.5932    0.0000 C.3     1  UNL1       -0.0174
      9 C           2.5000    1.0544    0.0000 C.3     1  UNL1        0.1001
     10 C           3.5827    2.2568    0.0000 C.2     1  UNL1        0.0437
     11 C           4.0134   -0.3850    0.0000 C.ar    1  UNL1       -0.0430
     12 C           2.6691    2.6636    0.0000 C.2     1  UNL1        0.3356
     13 C           4.4487    2.7568    0.0000 C.2     1  UNL1       -0.0441
     14 C           4.7565   -1.0541    0.0000 C.ar    1  UNL1       -0.0129
     15 C           3.0623   -0.6940    0.0000 C.ar    1  UNL1       -0.0549
     16 C           5.3147    2.2568    0.0000 C.ar    1  UNL1       -0.0209
     17 C           4.5486   -2.0322    0.0000 C.ar    1  UNL1        0.1665
     18 C           3.5976   -2.3413    0.0000 C.ar    1  UNL1        0.1662
     19 C           2.8544   -1.6721    0.0000 C.ar    1  UNL1       -0.0159
     20 C           6.1808    2.7568    0.0000 C.ar    1  UNL1       -0.0090
     21 C           5.3147    1.2568    0.0000 C.ar    1  UNL1       -0.0509
     22 C           7.0468    2.2568    0.0000 C.ar    1  UNL1        0.1668
     23 C           7.0468    1.2568    0.0000 C.ar    1  UNL1        0.1663
     24 C           4.5458   -3.6417    0.0000 C.3     1  UNL1        0.2332
     25 C           6.1808    0.7568    0.0000 C.ar    1  UNL1       -0.0156
     26 C           8.5766    1.7568    0.0000 C.3     1  UNL1        0.2332
     27 H           3.3177    0.6634    0.0000 H       1  UNL1        0.0387
     28 H           4.7962    0.3609    0.0000 H       1  UNL1        0.0320
     29 H           4.5498    1.1190    0.0000 H       1  UNL1        0.0320
     30 H           1.9336    0.8022    0.0000 H       1  UNL1        0.0704
     31 H           2.6916    0.4647    0.0000 H       1  UNL1        0.0704
     32 H           4.4487    3.3768    0.0000 H       1  UNL1        0.0628
     33 H           5.3462   -0.8625    0.0000 H       1  UNL1        0.0658
     34 H           2.6016   -0.2791    0.0000 H       1  UNL1        0.0621
     35 H           2.2648   -1.8637    0.0000 H       1  UNL1        0.0655
     36 H           6.1808    3.3768    0.0000 H       1  UNL1        0.0661
     37 H           4.7778    0.9468    0.0000 H       1  UNL1        0.0625
     38 H           6.1808    0.1368    0.0000 H       1  UNL1        0.0655
     39 H           4.2938   -4.2082    0.0000 H       1  UNL1        0.1166
     40 H           5.0827   -3.9519    0.0000 H       1  UNL1        0.1166
     41 H           9.0375    1.3421    0.0000 H       1  UNL1        0.1166
     42 H           9.0375    2.1716    0.0000 H       1  UNL1        0.1166
@<TRIPOS>BOND
     1     1     9    1
     2     1    12    1
     3     2    17    1
     4     2    24    1
     5     3    18    1
     6     3    24    1
     7     4    12    2
     8     5    22    1
     9     5    26    1
    10     6    23    1
    11     6    26    1
    12     7     8    1
    13     7     9    1
    14     7    10    1
    15     7    27    1
    16     8    11    1
    17     8    28    1
    18     8    29    1
    19     9    30    1
    20     9    31    1
    21    10    12    1
    22    10    13    2
    23    11    14   ar
    24    11    15   ar
    25    13    16    1
    26    13    32    1
    27    14    17   ar
    28    14    33    1
    29    15    19   ar
    30    15    34    1
    31    16    20   ar
    32    16    21   ar
    33    17    18   ar
    34    18    19   ar
    35    19    35    1
    36    20    22   ar
    37    20    36    1
    38    21    25   ar
    39    21    37    1
    40    22    23   ar
    41    23    25   ar
    42    24    39    1
    43    24    40    1
    44    25    38    1
    45    26    41    1
    46    26    42    1
