@<TRIPOS>MOLECULE
IMPHY015435
 27 26 0 0 0
SMALL
GASTEIGER

@<TRIPOS>ATOM
      1 O           2.5369    0.5000    0.0000 O.3     1  UNL1       -0.3918
      2 C           5.1350    0.0000    0.0000 C.3     1  UNL1       -0.0484
      3 C           4.2690    0.5000    0.0000 C.3     1  UNL1       -0.0266
      4 C           6.0010    0.5000    0.0000 C.3     1  UNL1       -0.0466
      5 C           3.4030    0.0000    0.0000 C.3     1  UNL1        0.0550
      6 C           3.4030   -1.0000    0.0000 C.3     1  UNL1       -0.0297
      7 C           6.8671   -0.0000    0.0000 C.3     1  UNL1       -0.0627
      8 C           6.0010    1.5000    0.0000 C.3     1  UNL1       -0.0627
      9 C           2.5369   -1.5000    0.0000 C.3     1  UNL1       -0.0629
     10 H           4.7365   -0.4749    0.0000 H       1  UNL1        0.0269
     11 H           5.5335   -0.4749    0.0000 H       1  UNL1        0.0269
     12 H           4.6675    0.9749    0.0000 H       1  UNL1        0.0290
     13 H           3.8705    0.9749    0.0000 H       1  UNL1        0.0290
     14 H           6.5380    0.8100    0.0000 H       1  UNL1        0.0295
     15 H           3.4030    0.6200    0.0000 H       1  UNL1        0.0593
     16 H           3.6150   -1.5826    0.0000 H       1  UNL1        0.0287
     17 H           4.0135   -0.8923    0.0000 H       1  UNL1        0.0287
     18 H           6.5571   -0.5369    0.0000 H       1  UNL1        0.0232
     19 H           7.4040   -0.3100    0.0000 H       1  UNL1        0.0232
     20 H           7.1771    0.5369    0.0000 H       1  UNL1        0.0232
     21 H           6.6210    1.5000    0.0000 H       1  UNL1        0.0232
     22 H           6.0010    2.1200    0.0000 H       1  UNL1        0.0232
     23 H           5.3810    1.5000    0.0000 H       1  UNL1        0.0232
     24 H           2.2269   -0.9631    0.0000 H       1  UNL1        0.0231
     25 H           2.0000   -1.8100    0.0000 H       1  UNL1        0.0231
     26 H           2.8469   -2.0369    0.0000 H       1  UNL1        0.0231
     27 H           2.0000    0.1900    0.0000 H       1  UNL1        0.2098
@<TRIPOS>BOND
     1     1     5    1
     2     1    27    1
     3     2     3    1
     4     2     4    1
     5     2    10    1
     6     2    11    1
     7     3     5    1
     8     3    12    1
     9     3    13    1
    10     4     7    1
    11     4     8    1
    12     4    14    1
    13     5     6    1
    14     5    15    1
    15     6     9    1
    16     6    16    1
    17     6    17    1
    18     7    18    1
    19     7    19    1
    20     7    20    1
    21     8    21    1
    22     8    22    1
    23     8    23    1
    24     9    24    1
    25     9    25    1
    26     9    26    1
