@<TRIPOS>MOLECULE
IMPHY017704
 32 31 0 0 0
SMALL
GASTEIGER

@<TRIPOS>ATOM
      1 O           2.5369    0.7500    0.0000 O.3     1  UNL1       -0.3921
      2 O          11.1972    0.7500    0.0000 O.3     1  UNL1       -0.3950
      3 C           4.2690    0.7500    0.0000 C.3     1  UNL1       -0.0268
      4 C           5.1350    0.2500    0.0000 C.3     1  UNL1       -0.0473
      5 C           3.4030    0.2500    0.0000 C.3     1  UNL1        0.0525
      6 C           6.0010    0.7500    0.0000 C.3     1  UNL1       -0.0347
      7 C           6.8671    0.2500    0.0000 C.2     1  UNL1       -0.0879
      8 C           8.5991    0.2500    0.0000 C.3     1  UNL1       -0.0327
      9 C           3.4030   -0.7500    0.0000 C.3     1  UNL1       -0.0389
     10 C           7.7331    0.7500    0.0000 C.2     1  UNL1       -0.0879
     11 C           9.4651    0.7500    0.0000 C.3     1  UNL1       -0.0263
     12 C          10.3312    0.2500    0.0000 C.3     1  UNL1        0.0445
     13 H           4.6675    1.2250    0.0000 H       1  UNL1        0.0290
     14 H           3.8705    1.2250    0.0000 H       1  UNL1        0.0290
     15 H           4.7365   -0.2249    0.0000 H       1  UNL1        0.0269
     16 H           5.5335   -0.2249    0.0000 H       1  UNL1        0.0269
     17 H           3.4030    0.8700    0.0000 H       1  UNL1        0.0590
     18 H           6.3996    1.2250    0.0000 H       1  UNL1        0.0307
     19 H           5.6025    1.2250    0.0000 H       1  UNL1        0.0307
     20 H           6.8671   -0.3700    0.0000 H       1  UNL1        0.0569
     21 H           8.2006   -0.2249    0.0000 H       1  UNL1        0.0308
     22 H           8.9976   -0.2249    0.0000 H       1  UNL1        0.0308
     23 H           2.7830   -0.7500    0.0000 H       1  UNL1        0.0254
     24 H           3.4030   -1.3700    0.0000 H       1  UNL1        0.0254
     25 H           4.0230   -0.7500    0.0000 H       1  UNL1        0.0254
     26 H           7.7331    1.3700    0.0000 H       1  UNL1        0.0569
     27 H           9.8637    1.2250    0.0000 H       1  UNL1        0.0290
     28 H           9.0666    1.2250    0.0000 H       1  UNL1        0.0290
     29 H           9.9326   -0.2249    0.0000 H       1  UNL1        0.0557
     30 H          10.7297   -0.2249    0.0000 H       1  UNL1        0.0557
     31 H           2.0000    0.4400    0.0000 H       1  UNL1        0.2098
     32 H          11.7341    0.4400    0.0000 H       1  UNL1        0.2094
@<TRIPOS>BOND
     1     1     5    1
     2     1    31    1
     3     2    12    1
     4     2    32    1
     5     3     4    1
     6     3     5    1
     7     3    13    1
     8     3    14    1
     9     4     6    1
    10     4    15    1
    11     4    16    1
    12     5     9    1
    13     5    17    1
    14     6     7    1
    15     6    18    1
    16     6    19    1
    17     7    10    2
    18     7    20    1
    19     8    10    1
    20     8    11    1
    21     8    21    1
    22     8    22    1
    23     9    23    1
    24     9    24    1
    25     9    25    1
    26    10    26    1
    27    11    12    1
    28    11    27    1
    29    11    28    1
    30    12    29    1
    31    12    30    1
