@<TRIPOS>MOLECULE
IMPHY013274
 27 29 0 0 0
SMALL
GASTEIGER

@<TRIPOS>ATOM
      1 O           5.5443   -3.0547    0.0000 O.2     1  UNL1       -0.4243
      2 N           3.7320   -0.2500    0.0000 N.pl3   1  UNL1       -0.3231
      3 N           2.8660   -1.7500    0.0000 N.ar    1  UNL1       -0.2185
      4 N           5.5443   -1.4453    0.0000 N.ar    1  UNL1       -0.2109
      5 N           3.7320   -3.2500    0.0000 N.ar    1  UNL1       -0.1991
      6 C           2.8660    0.2500    0.0000 C.3     1  UNL1        0.0357
      7 C           2.8660    1.2500    0.0000 C.ar    1  UNL1       -0.0304
      8 C           3.7320   -1.2500    0.0000 C.ar    1  UNL1        0.1517
      9 C           4.5981   -1.7500    0.0000 C.ar    1  UNL1        0.1683
     10 C           4.5981   -2.7500    0.0000 C.ar    1  UNL1        0.2522
     11 C           2.0000    1.7500    0.0000 C.ar    1  UNL1       -0.0571
     12 C           3.7320    1.7500    0.0000 C.ar    1  UNL1       -0.0571
     13 C           2.0000    2.7500    0.0000 C.ar    1  UNL1       -0.0615
     14 C           3.7320    2.7500    0.0000 C.ar    1  UNL1       -0.0615
     15 C           2.8660    3.2500    0.0000 C.ar    1  UNL1       -0.0617
     16 C           2.8660   -2.7500    0.0000 C.ar    1  UNL1        0.1220
     17 C           6.1279   -2.2500    0.0000 C.ar    1  UNL1        0.1852
     18 H           2.2554    0.3577    0.0000 H       1  UNL1        0.0511
     19 H           2.6540   -0.3326    0.0000 H       1  UNL1        0.0511
     20 H           4.2690    0.0600    0.0000 H       1  UNL1        0.1479
     21 H           1.4631    1.4400    0.0000 H       1  UNL1        0.0621
     22 H           4.2690    1.4400    0.0000 H       1  UNL1        0.0621
     23 H           1.4631    3.0600    0.0000 H       1  UNL1        0.0618
     24 H           4.2690    3.0600    0.0000 H       1  UNL1        0.0618
     25 H           2.8660    3.8700    0.0000 H       1  UNL1        0.0618
     26 H           2.3291   -3.0600    0.0000 H       1  UNL1        0.1049
     27 H           6.7479   -2.2500    0.0000 H       1  UNL1        0.1256
@<TRIPOS>BOND
     1     1    10   ar
     2     1    17   ar
     3     2     6    1
     4     2     8    1
     5     2    20    1
     6     3     8   ar
     7     3    16   ar
     8     4     9   ar
     9     4    17   ar
    10     5    10   ar
    11     5    16   ar
    12     6     7    1
    13     6    18    1
    14     6    19    1
    15     7    11   ar
    16     7    12   ar
    17     8     9   ar
    18     9    10   ar
    19    11    13   ar
    20    11    21    1
    21    12    14   ar
    22    12    22    1
    23    13    15   ar
    24    13    23    1
    25    14    15   ar
    26    14    24    1
    27    15    25    1
    28    16    26    1
    29    17    27    1
