@<TRIPOS>MOLECULE
IMPHY004998
 51 54 0 0 0
SMALL
GASTEIGER

@<TRIPOS>ATOM
      1 O           2.8660    1.0346    0.0000 O.3     1  UNL1       -0.4612
      2 O           5.2501    1.5037    0.0000 O.3     1  UNL1       -0.3912
      3 O           3.7320    2.5346    0.0000 O.2     1  UNL1       -0.2512
      4 N           4.6141   -2.0069    0.0000 N.3     1  UNL1       -0.2960
      5 C           4.5981   -0.9654    0.0000 C.3     1  UNL1        0.0316
      6 C           5.4641   -0.4654    0.0000 C.3     1  UNL1       -0.0168
      7 C           3.7320   -0.4654    0.0000 C.3     1  UNL1        0.0149
      8 C           5.4641    0.5346    0.0000 C.3     1  UNL1       -0.0069
      9 C           4.3950   -0.5954    0.0000 C.3     1  UNL1       -0.0289
     10 C           3.7320    0.5346    0.0000 C.3     1  UNL1        0.1079
     11 C           4.5981    1.0346    0.0000 C.3     1  UNL1       -0.0099
     12 C           5.0422    0.5256    0.0000 C.3     1  UNL1        0.0611
     13 C           4.3114    0.2002    0.0000 C.3     1  UNL1       -0.0158
     14 C           6.3739   -0.9534    0.0000 C.3     1  UNL1       -0.0470
     15 C           2.8220   -0.9722    0.0000 C.3     1  UNL1       -0.0440
     16 C           5.5124   -2.5158    0.0000 C.3     1  UNL1       -0.0006
     17 C           3.7161   -2.5346    0.0000 C.3     1  UNL1       -0.0006
     18 C           6.3982   -1.9855    0.0000 C.3     1  UNL1       -0.0399
     19 C           2.8140   -2.0138    0.0000 C.3     1  UNL1       -0.0398
     20 C           3.3265    0.0266    0.0000 C.3     1  UNL1       -0.0600
     21 C           2.8660    2.0346    0.0000 C.2     1  UNL1        0.3042
     22 C           2.0000    2.5346    0.0000 C.3     1  UNL1        0.0332
     23 H           6.1935   -0.0289    0.0000 H       1  UNL1        0.0322
     24 H           2.9992   -0.0347    0.0000 H       1  UNL1        0.0355
     25 H           6.2002    0.9596    0.0000 H       1  UNL1        0.0330
     26 H           3.8002   -0.4203    0.0000 H       1  UNL1        0.0287
     27 H           4.9867   -0.4102    0.0000 H       1  UNL1        0.0287
     28 H           3.7320    1.1546    0.0000 H       1  UNL1        0.0737
     29 H           4.9966    1.5096    0.0000 H       1  UNL1        0.0304
     30 H           4.1996    1.5096    0.0000 H       1  UNL1        0.0304
     31 H           4.3816    1.0605    0.0000 H       1  UNL1        0.0599
     32 H           4.0629    1.0130    0.0000 H       1  UNL1        0.0324
     33 H           6.9871   -1.0451    0.0000 H       1  UNL1        0.0269
     34 H           6.5691   -0.3649    0.0000 H       1  UNL1        0.0269
     35 H           2.6175   -0.3869    0.0000 H       1  UNL1        0.0270
     36 H           2.2104   -1.0736    0.0000 H       1  UNL1        0.0270
     37 H           5.1190   -2.9950    0.0000 H       1  UNL1        0.0427
     38 H           5.9172   -2.9854    0.0000 H       1  UNL1        0.0427
     39 H           3.3188   -3.0106    0.0000 H       1  UNL1        0.0427
     40 H           4.1171   -3.0075    0.0000 H       1  UNL1        0.0427
     41 H           6.6209   -2.5641    0.0000 H       1  UNL1        0.0278
     42 H           7.0064   -1.8650    0.0000 H       1  UNL1        0.0278
     43 H           2.2040   -1.9030    0.0000 H       1  UNL1        0.0278
     44 H           2.6005   -2.5959    0.0000 H       1  UNL1        0.0278
     45 H           3.2189    0.6372    0.0000 H       1  UNL1        0.0233
     46 H           2.7159   -0.0810    0.0000 H       1  UNL1        0.0233
     47 H           3.4341   -0.5840    0.0000 H       1  UNL1        0.0233
     48 H           5.8398    1.6953    0.0000 H       1  UNL1        0.2098
     49 H           2.3100    3.0716    0.0000 H       1  UNL1        0.0342
     50 H           1.4631    2.8446    0.0000 H       1  UNL1        0.0342
     51 H           1.6900    1.9977    0.0000 H       1  UNL1        0.0342
@<TRIPOS>BOND
     1    10     1    1
     2     1    21    1
     3     2    12    1
     4     2    48    1
     5     3    21    2
     6     4     5    1
     7     4    16    1
     8     4    17    1
     9     5     6    1
    10     5     7    1
    11     5     9    1
    12     6     8    1
    13     6    14    1
    14     6    23    1
    15     7    10    1
    16     7    15    1
    17     7    24    1
    18     8    11    1
    19     8    12    1
    20     8    25    1
    21     9    13    1
    22     9    26    1
    23     9    27    1
    24    10    11    1
    25    10    28    1
    26    11    29    1
    27    11    30    1
    28    12    13    1
    29    12    31    1
    30    13    20    1
    31    13    32    1
    32    14    18    1
    33    14    33    1
    34    14    34    1
    35    15    19    1
    36    15    35    1
    37    15    36    1
    38    16    18    1
    39    16    37    1
    40    16    38    1
    41    17    19    1
    42    17    39    1
    43    17    40    1
    44    18    41    1
    45    18    42    1
    46    19    43    1
    47    19    44    1
    48    20    45    1
    49    20    46    1
    50    20    47    1
    51    21    22    1
    52    22    49    1
    53    22    50    1
    54    22    51    1
