@<TRIPOS>MOLECULE
IMPHY011485
 181 186 0 0 0
SMALL
GASTEIGER

@<TRIPOS>ATOM
      1 CO          8.3756   -1.8617    0.0000 Co.oh   1  UNL1        0.0000
      2 P          17.2622    3.4490    0.0000 P.3     2  UNL2        0.0000
      3 O          11.1123   -5.2370    0.0000 O.2     2  UNL2        0.0000
      4 O          13.7667   -1.2925    0.0000 O.2     2  UNL2        0.0000
      5 O           5.3997   -5.9798    0.0000 O.2     2  UNL2        0.0000
      6 O          14.8106   -0.4226    0.0000 O.2     2  UNL2        0.0000
      7 O           4.9681   -3.6292    0.0000 O.2     2  UNL2        0.0000
      8 O           3.5422    0.9152    0.0000 O.2     2  UNL2        0.0000
      9 O          11.0683    3.9568    0.0000 O.2     2  UNL2        0.0000
     10 O          16.8965    2.5183    0.0000 O.3     2  UNL2        0.0000
     11 O          17.6279    4.3798    0.0000 O.3     2  UNL2        0.0000
     12 O          18.1929    3.0833    0.0000 O.co2   2  UNL2       -0.5000
     13 O          16.3315    3.8147    0.0000 O.2     2  UNL2       -0.5000
     14 O          20.2129    4.2628    0.0000 O.3     2  UNL2        0.0000
     15 O          18.6308    6.3104    0.0000 O.3     2  UNL2        0.0000
     16 O          19.9263    2.1940    0.0000 O.3     2  UNL2        0.0000
     17 N           8.8869   -2.7211    0.0000 N.pl3   2  UNL2       -1.0000
     18 N          10.3483   -1.3883    0.0000 N.2     2  UNL2        0.0000
     19 N           7.4237   -1.3883    0.0000 N.2     2  UNL2        0.0000
     20 N          10.2555   -6.7424    0.0000 N.am    2  UNL2        0.0000
     21 N           8.8543   -0.0556    0.0000 N.2     2  UNL2        0.0000
     22 N          14.2433   -2.9577    0.0000 N.am    2  UNL2        0.0000
     23 N          14.5531    1.2902    0.0000 N.am    2  UNL2        0.0000
     24 N           6.8997   -6.8458    0.0000 N.am    2  UNL2        0.0000
     25 N           9.7236   -0.4779    0.0000 N.1     2  UNL2        0.0000
     26 N           3.4494   -2.7964    0.0000 N.am    2  UNL2        0.0000
     27 N           2.4934   -0.4633    0.0000 N.am    2  UNL2        0.0000
     28 N           9.6520    4.9538    0.0000 N.am    2  UNL2        0.0000
     29 N          20.7768    5.9532    0.0000 N.ar    2  UNL2        0.0000
     30 N          21.5163    7.3828    0.0000 N.ar    2  UNL2        0.0000
     31 C           9.6673   -3.3060    0.0000 C.3     2  UNL2        0.0000
     32 C           9.3740   -4.2478    0.0000 C.3     2  UNL2        0.0000
     33 C          10.9333   -2.1036    0.0000 C.3     2  UNL2        0.0000
     34 C           8.3997   -4.2478    0.0000 C.3     2  UNL2        0.0000
     35 C          11.8439   -1.8429    0.0000 C.3     2  UNL2        0.0000
     36 C          11.8439   -0.8686    0.0000 C.3     2  UNL2        0.0000
     37 C           8.1064   -3.3386    0.0000 C.2     2  UNL2        0.0000
     38 C           9.3802   -5.2477    0.0000 C.3     2  UNL2        0.0000
     39 C          10.5164   -3.8342    0.0000 C.3     2  UNL2        0.0000
     40 C          10.3270   -4.5509    0.0000 C.3     2  UNL2        0.0000
     41 C          10.9007   -0.6079    0.0000 C.2     2  UNL2        0.0000
     42 C           7.8997   -5.1138    0.0000 C.3     2  UNL2        0.0000
     43 C          12.5629   -2.5379    0.0000 C.3     2  UNL2        0.0000
     44 C          12.8328   -0.7200    0.0000 C.3     2  UNL2        0.0000
     45 C          12.0081    0.1178    0.0000 C.3     2  UNL2        0.0000
     46 C           7.1647   -3.0453    0.0000 C.2     2  UNL2        0.0000
     47 C          10.6090    0.3012    0.0000 C.2     2  UNL2        0.0000
     48 C           6.8997   -5.1138    0.0000 C.3     2  UNL2        0.0000
     49 C          10.2493   -5.7424    0.0000 C.2     2  UNL2        0.0000
     50 C           6.8715   -2.1362    0.0000 C.2     2  UNL2        0.0000
     51 C           5.9297   -1.8755    0.0000 C.3     2  UNL2        0.0000
     52 C          13.1985    0.2108    0.0000 C.3     2  UNL2        0.0000
     53 C          13.5243   -2.2627    0.0000 C.2     2  UNL2        0.0000
     54 C           9.6673    0.5945    0.0000 C.2     2  UNL2        0.0000
     55 C           5.9297   -0.9012    0.0000 C.3     2  UNL2        0.0000
     56 C           6.4940   -3.7870    0.0000 C.3     2  UNL2        0.0000
     57 C           9.3414    1.5036    0.0000 C.3     2  UNL2        0.0000
     58 C           8.3671    1.5036    0.0000 C.3     2  UNL2        0.0000
     59 C          11.3439    0.9794    0.0000 C.3     2  UNL2        0.0000
     60 C           6.8715   -0.6405    0.0000 C.2     2  UNL2        0.0000
     61 C           4.9300   -1.8975    0.0000 C.3     2  UNL2        0.0000
     62 C           8.0738    0.5619    0.0000 C.2     2  UNL2        0.0000
     63 C           5.6418   -2.8331    0.0000 C.3     2  UNL2        0.0000
     64 C           6.3997   -5.9798    0.0000 C.2     2  UNL2        0.0000
     65 C           5.1339   -0.2958    0.0000 C.3     2  UNL2        0.0000
     66 C          14.1874    0.3594    0.0000 C.2     2  UNL2        0.0000
     67 C           7.1322    0.3012    0.0000 C.2     2  UNL2        0.0000
     68 C           9.9171    2.3213    0.0000 C.3     2  UNL2        0.0000
     69 C           8.8642   -0.9892    0.0000 C.2     2  UNL2       -1.0000
     70 C           8.3610    2.5036    0.0000 C.3     2  UNL2        0.0000
     71 C           7.4142    1.8068    0.0000 C.3     2  UNL2        0.0000
     72 C           4.2116   -0.6823    0.0000 C.3     2  UNL2        0.0000
     73 C           4.4492   -2.7744    0.0000 C.2     2  UNL2        0.0000
     74 C           9.4967    3.2287    0.0000 C.3     2  UNL2        0.0000
     75 C          15.5420    1.4389    0.0000 C.3     2  UNL2        0.0000
     76 C           3.4157   -0.0768    0.0000 C.2     2  UNL2        0.0000
     77 C          10.0723    4.0464    0.0000 C.2     2  UNL2        0.0000
     78 C          15.9076    2.3696    0.0000 C.3     2  UNL2        0.0000
     79 C          15.2844    3.1517    0.0000 C.3     2  UNL2        0.0000
     80 C          18.6168    4.5284    0.0000 C.3     2  UNL2        0.0000
     81 C          19.0777    5.4158    0.0000 C.3     2  UNL2        0.0000
     82 C          19.3183    3.8158    0.0000 C.3     2  UNL2        0.0000
     83 C          20.0642    5.2517    0.0000 C.3     2  UNL2        0.0000
     84 C          19.1541    2.8294    0.0000 C.3     2  UNL2        0.0000
     85 C          21.7573    5.7892    0.0000 C.ar    2  UNL2        0.0000
     86 C          20.6282    6.9361    0.0000 C.ar    2  UNL2        0.0000
     87 C          22.2167    6.6774    0.0000 C.ar    2  UNL2        0.0000
     88 C          22.2968    4.9472    0.0000 C.ar    2  UNL2        0.0000
     89 C          23.2156    6.7236    0.0000 C.ar    2  UNL2        0.0000
     90 C          23.2957    4.9934    0.0000 C.ar    2  UNL2        0.0000
     91 C          23.7551    5.8816    0.0000 C.ar    2  UNL2        0.0000
     92 C          23.8352    4.1514    0.0000 C.3     2  UNL2        0.0000
     93 C          24.7541    5.9278    0.0000 C.3     2  UNL2        0.0000
     94 H          11.3550   -2.8416    0.0000 H       2  UNL2        0.0000
     95 H           7.7832   -4.1823    0.0000 H       2  UNL2        0.0000
     96 H          12.4147   -1.6008    0.0000 H       2  UNL2        0.0000
     97 H           8.7690   -5.1439    0.0000 H       2  UNL2        0.0000
     98 H           9.1718   -5.8316    0.0000 H       2  UNL2        0.0000
     99 H          10.1889   -4.3607    0.0000 H       2  UNL2        0.0000
    100 H          11.0428   -4.1617    0.0000 H       2  UNL2        0.0000
    101 H          10.8439   -3.3078    0.0000 H       2  UNL2        0.0000
    102 H          10.1391   -5.1417    0.0000 H       2  UNL2        0.0000
    103 H          10.9178   -4.7388    0.0000 H       2  UNL2        0.0000
    104 H          10.5149   -3.9601    0.0000 H       2  UNL2        0.0000
    105 H           7.7920   -5.7244    0.0000 H       2  UNL2        0.0000
    106 H           8.4823   -5.3258    0.0000 H       2  UNL2        0.0000
    107 H          12.0612   -2.9021    0.0000 H       2  UNL2        0.0000
    108 H          12.8345   -3.0953    0.0000 H       2  UNL2        0.0000
    109 H          12.8171   -1.3398    0.0000 H       2  UNL2        0.0000
    110 H          13.4405   -0.8430    0.0000 H       2  UNL2        0.0000
    111 H          12.6197    0.0160    0.0000 H       2  UNL2        0.0000
    112 H          12.1099    0.7294    0.0000 H       2  UNL2        0.0000
    113 H          11.3965    0.2196    0.0000 H       2  UNL2        0.0000
    114 H           7.0074   -4.5032    0.0000 H       2  UNL2        0.0000
    115 H           6.3171   -4.9017    0.0000 H       2  UNL2        0.0000
    116 H          13.2142    0.8306    0.0000 H       2  UNL2        0.0000
    117 H          12.5908    0.3338    0.0000 H       2  UNL2        0.0000
    118 H           5.3742   -1.1766    0.0000 H       2  UNL2        0.0000
    119 H           6.0341   -3.3712    0.0000 H       2  UNL2        0.0000
    120 H           6.0781   -4.2469    0.0000 H       2  UNL2        0.0000
    121 H           6.9538   -4.2029    0.0000 H       2  UNL2        0.0000
    122 H           9.0558    2.0539    0.0000 H       2  UNL2        0.0000
    123 H          11.7644    0.5237    0.0000 H       2  UNL2        0.0000
    124 H          11.7995    1.3998    0.0000 H       2  UNL2        0.0000
    125 H          10.9234    1.4350    0.0000 H       2  UNL2        0.0000
    126 H           5.0242   -1.2847    0.0000 H       2  UNL2        0.0000
    127 H           4.3428   -1.6984    0.0000 H       2  UNL2        0.0000
    128 H           5.0480   -2.6546    0.0000 H       2  UNL2        0.0000
    129 H           5.4632   -3.4269    0.0000 H       2  UNL2        0.0000
    130 H           6.2355   -3.0117    0.0000 H       2  UNL2        0.0000
    131 H          10.7944   -7.0490    0.0000 H       2  UNL2        0.0000
    132 H           9.7205   -7.0557    0.0000 H       2  UNL2        0.0000
    133 H           5.5892    0.1250    0.0000 H       2  UNL2        0.0000
    134 H           4.7986    0.2257    0.0000 H       2  UNL2        0.0000
    135 H           6.6974    0.7432    0.0000 H       2  UNL2        0.0000
    136 H          10.3544    1.8818    0.0000 H       2  UNL2        0.0000
    137 H          10.4258    2.6757    0.0000 H       2  UNL2        0.0000
    138 H          14.8394   -2.7871    0.0000 H       2  UNL2        0.0000
    139 H          14.0931   -3.5592    0.0000 H       2  UNL2        0.0000
    140 H           7.6022    2.3976    0.0000 H       2  UNL2        0.0000
    141 H           6.8234    1.9948    0.0000 H       2  UNL2        0.0000
    142 H           7.2262    1.2160    0.0000 H       2  UNL2        0.0000
    143 H           8.9810    2.5074    0.0000 H       2  UNL2        0.0000
    144 H           8.3572    3.1236    0.0000 H       2  UNL2        0.0000
    145 H           7.7410    2.4998    0.0000 H       2  UNL2        0.0000
    146 H           3.7562   -1.1030    0.0000 H       2  UNL2        0.0000
    147 H           4.5469   -1.2038    0.0000 H       2  UNL2        0.0000
    148 H           9.0594    3.6682    0.0000 H       2  UNL2        0.0000
    149 H           8.9880    2.8744    0.0000 H       2  UNL2        0.0000
    150 H          14.1667    1.7751    0.0000 H       2  UNL2        0.0000
    151 H           6.5897   -7.3828    0.0000 H       2  UNL2        0.0000
    152 H           7.5197   -6.8458    0.0000 H       2  UNL2        0.0000
    153 H          15.5263    0.8191    0.0000 H       2  UNL2        0.0000
    154 H          16.1496    1.3158    0.0000 H       2  UNL2        0.0000
    155 H           3.1513   -3.3400    0.0000 H       2  UNL2        0.0000
    156 H           3.1277   -2.2664    0.0000 H       2  UNL2        0.0000
    157 H          16.1344    2.9467    0.0000 H       2  UNL2        0.0000
    158 H           2.0000   -0.0879    0.0000 H       2  UNL2        0.0000
    159 H           2.4150   -1.0783    0.0000 H       2  UNL2        0.0000
    160 H          10.0088    5.4608    0.0000 H       2  UNL2        0.0000
    161 H           9.0345    5.0094    0.0000 H       2  UNL2        0.0000
    162 H          15.7693    3.5380    0.0000 H       2  UNL2        0.0000
    163 H          14.8981    3.6365    0.0000 H       2  UNL2        0.0000
    164 H          14.7996    2.7653    0.0000 H       2  UNL2        0.0000
    165 H          18.4206    3.9403    0.0000 H       2  UNL2        0.0000
    166 H          18.4578    5.4207    0.0000 H       2  UNL2        0.0000
    167 H          19.8170    3.4474    0.0000 H       2  UNL2        0.0000
    168 H          19.8772    5.8428    0.0000 H       2  UNL2        0.0000
    169 H          18.5695    3.0358    0.0000 H       2  UNL2        0.0000
    170 H          18.8493    2.2895    0.0000 H       2  UNL2        0.0000
    171 H          18.0119    6.3477    0.0000 H       2  UNL2        0.0000
    172 H          20.0775    7.2210    0.0000 H       2  UNL2        0.0000
    173 H          19.8245    1.5824    0.0000 H       2  UNL2        0.0000
    174 H          22.0119    4.3965    0.0000 H       2  UNL2        0.0000
    175 H          23.5005    7.2743    0.0000 H       2  UNL2        0.0000
    176 H          23.3132    3.8169    0.0000 H       2  UNL2        0.0000
    177 H          24.1697    3.6294    0.0000 H       2  UNL2        0.0000
    178 H          24.3572    4.4859    0.0000 H       2  UNL2        0.0000
    179 H          24.7827    5.3085    0.0000 H       2  UNL2        0.0000
    180 H          25.3734    5.9565    0.0000 H       2  UNL2        0.0000
    181 H          24.7254    6.5472    0.0000 H       2  UNL2        0.0000
@<TRIPOS>UNITY_ATOM_ATTR
1 1
charge 3
12 1
charge -1
17 1
charge -1
69 1
charge -1
@<TRIPOS>BOND
     1     2    10    1
     2     2    11    1
     3     2    12    1
     4     2    13    2
     5     3    49    2
     6     4    53    2
     7     5    64    2
     8     6    66    2
     9     7    73    2
    10     8    76    2
    11     9    77    2
    12    10    78    1
    13    80    11    1
    14    14    82    1
    15    14    83    1
    16    81    15    1
    17    15   171    1
    18    16    84    1
    19    16   173    1
    20    17    31    1
    21    17    37    1
    22    18    33    1
    23    18    41    2
    24    19    50    2
    25    19    60    1
    26    20    49   am
    27    20   131    1
    28    20   132    1
    29    21    54    1
    30    21    62    2
    31    22    53   am
    32    22   138    1
    33    22   139    1
    34    23    66   am
    35    23    75    1
    36    23   150    1
    37    24    64   am
    38    24   151    1
    39    24   152    1
    40    25    69    3
    41    26    73   am
    42    26   155    1
    43    26   156    1
    44    27    76   am
    45    27   158    1
    46    27   159    1
    47    28    77   am
    48    28   160    1
    49    28   161    1
    50    83    29    1
    51    29    85   ar
    52    29    86   ar
    53    30    86   ar
    54    30    87   ar
    55    31    32    1
    56    31    33    1
    57    31    39    1
    58    32    34    1
    59    32    38    1
    60    32    40    1
    61    33    35    1
    62    33    94    1
    63    34    37    1
    64    34    42    1
    65    34    95    1
    66    35    36    1
    67    35    43    1
    68    35    96    1
    69    36    41    1
    70    36    44    1
    71    36    45    1
    72    37    46    2
    73    38    49    1
    74    38    97    1
    75    38    98    1
    76    39    99    1
    77    39   100    1
    78    39   101    1
    79    40   102    1
    80    40   103    1
    81    40   104    1
    82    41    47    1
    83    42    48    1
    84    42   105    1
    85    42   106    1
    86    43    53    1
    87    43   107    1
    88    43   108    1
    89    44    52    1
    90    44   109    1
    91    44   110    1
    92    45   111    1
    93    45   112    1
    94    45   113    1
    95    46    50    1
    96    46    56    1
    97    47    54    2
    98    47    59    1
    99    48    64    1
   100    48   114    1
   101    48   115    1
   102    50    51    1
   103    51    55    1
   104    51    61    1
   105    51    63    1
   106    52    66    1
   107    52   116    1
   108    52   117    1
   109    54    57    1
   110    55    60    1
   111    55    65    1
   112    55   118    1
   113    56   119    1
   114    56   120    1
   115    56   121    1
   116    57    58    1
   117    57    68    1
   118    57   122    1
   119    58    62    1
   120    58    70    1
   121    58    71    1
   122    59   123    1
   123    59   124    1
   124    59   125    1
   125    60    67    2
   126    61    73    1
   127    61   126    1
   128    61   127    1
   129    62    67    1
   130    63   128    1
   131    63   129    1
   132    63   130    1
   133    65    72    1
   134    65   133    1
   135    65   134    1
   136    67   135    1
   137    68    74    1
   138    68   136    1
   139    68   137    1
   140    70   143    1
   141    70   144    1
   142    70   145    1
   143    71   140    1
   144    71   141    1
   145    71   142    1
   146    72    76    1
   147    72   146    1
   148    72   147    1
   149    74    77    1
   150    74   148    1
   151    74   149    1
   152    75    78    1
   153    75   153    1
   154    75   154    1
   155    78    79    1
   156    78   157    1
   157    79   162    1
   158    79   163    1
   159    79   164    1
   160    80    81    1
   161    80    82    1
   162    80   165    1
   163    81    83    1
   164    81   166    1
   165    82    84    1
   166    82   167    1
   167    83   168    1
   168    84   169    1
   169    84   170    1
   170    85    87   ar
   171    85    88   ar
   172    86   172    1
   173    87    89   ar
   174    88    90   ar
   175    88   174    1
   176    89    91   ar
   177    89   175    1
   178    90    91   ar
   179    90    92    1
   180    91    93    1
   181    92   176    1
   182    92   177    1
   183    92   178    1
   184    93   179    1
   185    93   180    1
   186    93   181    1
