@<TRIPOS>MOLECULE
IMPHY005354
 25 25 0 0 0
SMALL
GASTEIGER

@<TRIPOS>ATOM
      1 O           4.2690    1.8450    0.0000 O.3     1  UNL1       -0.3891
      2 O           2.5369    0.8450    0.0000 O.3     1  UNL1       -0.3880
      3 O           6.8671   -0.6550    0.0000 O.3     1  UNL1       -0.4795
      4 O           6.0010   -2.1550    0.0000 O.2     1  UNL1       -0.2492
      5 N           4.2690   -1.1550    0.0000 N.3     1  UNL1       -0.2904
      6 C           5.1350   -0.6550    0.0000 C.3     1  UNL1        0.1104
      7 C           4.2690    0.8450    0.0000 C.3     1  UNL1        0.0842
      8 C           5.1350    0.3450    0.0000 C.3     1  UNL1        0.0016
      9 C           3.4030    0.3450    0.0000 C.3     1  UNL1        0.0937
     10 C           3.4030   -0.6550    0.0000 C.3     1  UNL1        0.0279
     11 C           4.2690   -2.1550    0.0000 C.3     1  UNL1       -0.0119
     12 C           6.0010   -1.1550    0.0000 C.2     1  UNL1        0.3222
     13 H           5.1350   -1.5050    0.0000 H       1  UNL1        0.0579
     14 H           5.0051    1.2700    0.0000 H       1  UNL1        0.0620
     15 H           5.7456    0.2373    0.0000 H       1  UNL1        0.0311
     16 H           5.3471    0.9276    0.0000 H       1  UNL1        0.0311
     17 H           3.4030    1.1950    0.0000 H       1  UNL1        0.0632
     18 H           2.7924   -0.5473    0.0000 H       1  UNL1        0.0453
     19 H           3.1909   -1.2376    0.0000 H       1  UNL1        0.0453
     20 H           3.6490   -2.1550    0.0000 H       1  UNL1        0.0391
     21 H           4.2690   -2.7750    0.0000 H       1  UNL1        0.0391
     22 H           4.8890   -2.1550    0.0000 H       1  UNL1        0.0391
     23 H           4.8059    2.1550    0.0000 H       1  UNL1        0.2099
     24 H           2.0000    0.5350    0.0000 H       1  UNL1        0.2099
     25 H           7.4040   -0.9650    0.0000 H       1  UNL1        0.2951
@<TRIPOS>BOND
     1     1     7    1
     2     1    23    1
     3     2     9    1
     4     2    24    1
     5     3    12    1
     6     3    25    1
     7     4    12    2
     8     5     6    1
     9     5    10    1
    10     5    11    1
    11     6     8    1
    12     6    12    1
    13     6    13    1
    14     7     8    1
    15     7     9    1
    16     7    14    1
    17     8    15    1
    18     8    16    1
    19     9    10    1
    20     9    17    1
    21    10    18    1
    22    10    19    1
    23    11    20    1
    24    11    21    1
    25    11    22    1
