@<TRIPOS>MOLECULE
IMPHY017230
 26 26 0 0 0
SMALL
GASTEIGER

@<TRIPOS>ATOM
      1 O           5.1350    1.2500    0.0000 O.3     1  UNL1       -0.3751
      2 O           2.5369   -0.2500    0.0000 O.3     1  UNL1       -0.5064
      3 C           4.2690    0.7500    0.0000 C.3     1  UNL1        0.0864
      4 C           3.4030    1.2500    0.0000 C.3     1  UNL1       -0.0252
      5 C           4.2690   -0.2500    0.0000 C.ar    1  UNL1        0.0225
      6 C           3.4030    2.2500    0.0000 C.3     1  UNL1       -0.0626
      7 C           3.4030   -0.7500    0.0000 C.ar    1  UNL1        0.1225
      8 C           5.1350   -0.7500    0.0000 C.ar    1  UNL1       -0.0526
      9 C           3.4030   -1.7500    0.0000 C.ar    1  UNL1       -0.0198
     10 C           5.1350   -1.7500    0.0000 C.ar    1  UNL1       -0.0612
     11 C           4.2690   -2.2500    0.0000 C.ar    1  UNL1       -0.0583
     12 C           5.1350    2.2500    0.0000 C.3     1  UNL1        0.0372
     13 H           4.2690    1.3700    0.0000 H       1  UNL1        0.0647
     14 H           2.7924    1.3577    0.0000 H       1  UNL1        0.0291
     15 H           3.1909    0.6674    0.0000 H       1  UNL1        0.0291
     16 H           4.0230    2.2500    0.0000 H       1  UNL1        0.0231
     17 H           3.4030    2.8700    0.0000 H       1  UNL1        0.0231
     18 H           2.7830    2.2500    0.0000 H       1  UNL1        0.0231
     19 H           5.6720   -0.4400    0.0000 H       1  UNL1        0.0622
     20 H           2.8660   -2.0600    0.0000 H       1  UNL1        0.0654
     21 H           5.6720   -2.0600    0.0000 H       1  UNL1        0.0618
     22 H           4.2690   -2.8700    0.0000 H       1  UNL1        0.0619
     23 H           5.7550    2.2500    0.0000 H       1  UNL1        0.0524
     24 H           5.1350    2.8700    0.0000 H       1  UNL1        0.0524
     25 H           4.5150    2.2500    0.0000 H       1  UNL1        0.0524
     26 H           2.0000   -0.5600    0.0000 H       1  UNL1        0.2921
@<TRIPOS>BOND
     1     1     3    1
     2     1    12    1
     3     2     7    1
     4     2    26    1
     5     3     4    1
     6     3     5    1
     7     3    13    1
     8     4     6    1
     9     4    14    1
    10     4    15    1
    11     5     7   ar
    12     5     8   ar
    13     6    16    1
    14     6    17    1
    15     6    18    1
    16     7     9   ar
    17     8    10   ar
    18     8    19    1
    19     9    11   ar
    20     9    20    1
    21    10    11   ar
    22    10    21    1
    23    11    22    1
    24    12    23    1
    25    12    24    1
    26    12    25    1
