@<TRIPOS>MOLECULE
IMPHY007834
 52 56 0 0 0
SMALL
GASTEIGER

@<TRIPOS>ATOM
      1 O           6.3746    3.0374    0.0000 O.3     1  UNL1       -0.4641
      2 O           7.7582    1.9234    0.0000 O.2     1  UNL1       -0.2505
      3 O           4.0768   -2.6190    0.0000 O.3     1  UNL1       -0.4525
      4 O           2.6249   -1.7807    0.0000 O.3     1  UNL1       -0.4489
      5 O           2.5405    0.4657    0.0000 O.3     1  UNL1       -0.5030
      6 O           9.5068    0.4626    0.0000 O.3     1  UNL1       -0.4913
      7 O           7.7748   -2.5374    0.0000 O.3     1  UNL1       -0.4913
      8 O           9.5068   -1.5374    0.0000 O.3     1  UNL1       -0.4885
      9 C           6.0427    1.4626    0.0000 C.3     1  UNL1        0.0734
     10 C           5.1767    1.9626    0.0000 C.3     1  UNL1        0.0112
     11 C           6.0427    0.4626    0.0000 C.3     1  UNL1        0.0232
     12 C           4.3107    1.4626    0.0000 C.3     1  UNL1       -0.0171
     13 C           5.1767   -0.0374    0.0000 C.ar    1  UNL1       -0.0288
     14 C           5.3859    2.9344    0.0000 C.3     1  UNL1        0.0964
     15 C           4.3107    0.4626    0.0000 C.ar    1  UNL1        0.0021
     16 C           6.7797    2.1296    0.0000 C.2     1  UNL1        0.3115
     17 C           6.9088   -0.0374    0.0000 C.ar    1  UNL1       -0.0320
     18 C           5.1928   -1.0789    0.0000 C.ar    1  UNL1       -0.0119
     19 C           3.4007   -0.0443    0.0000 C.ar    1  UNL1        0.1658
     20 C           4.2947   -1.6067    0.0000 C.ar    1  UNL1        0.1702
     21 C           3.3926   -1.0859    0.0000 C.ar    1  UNL1        0.2076
     22 C           6.9088   -1.0374    0.0000 C.ar    1  UNL1       -0.0123
     23 C           7.7748    0.4626    0.0000 C.ar    1  UNL1       -0.0123
     24 C           8.6408   -0.0374    0.0000 C.ar    1  UNL1        0.1654
     25 C           7.7748   -1.5374    0.0000 C.ar    1  UNL1        0.1654
     26 C           3.0469   -2.7263    0.0000 C.3     1  UNL1        0.2334
     27 C           8.6408   -1.0374    0.0000 C.ar    1  UNL1        0.2035
     28 C           9.5068    1.4626    0.0000 C.3     1  UNL1        0.0790
     29 C           8.6408   -3.0374    0.0000 C.3     1  UNL1        0.0790
     30 C          10.3728   -1.0374    0.0000 C.3     1  UNL1        0.0791
     31 H           6.8197    1.1178    0.0000 H       1  UNL1        0.0427
     32 H           4.4897    2.4631    0.0000 H       1  UNL1        0.0345
     33 H           6.0427   -0.1574    0.0000 H       1  UNL1        0.0405
     34 H           4.0986    2.0452    0.0000 H       1  UNL1        0.0318
     35 H           3.7001    1.3549    0.0000 H       1  UNL1        0.0318
     36 H           5.3868    3.5544    0.0000 H       1  UNL1        0.0700
     37 H           4.7694    3.0004    0.0000 H       1  UNL1        0.0700
     38 H           5.7332   -1.3827    0.0000 H       1  UNL1        0.0658
     39 H           6.3718   -1.3474    0.0000 H       1  UNL1        0.0658
     40 H           7.7748    1.0826    0.0000 H       1  UNL1        0.0658
     41 H           2.0000    0.1619    0.0000 H       1  UNL1        0.2923
     42 H           2.4573   -2.9181    0.0000 H       1  UNL1        0.1166
     43 H           3.1756   -3.3328    0.0000 H       1  UNL1        0.1166
     44 H          10.1268    1.4626    0.0000 H       1  UNL1        0.0660
     45 H           9.5068    2.0826    0.0000 H       1  UNL1        0.0660
     46 H           8.8868    1.4626    0.0000 H       1  UNL1        0.0660
     47 H           8.3308   -3.5744    0.0000 H       1  UNL1        0.0660
     48 H           9.1777   -3.3474    0.0000 H       1  UNL1        0.0660
     49 H           8.9508   -2.5005    0.0000 H       1  UNL1        0.0660
     50 H          10.6828   -1.5744    0.0000 H       1  UNL1        0.0660
     51 H          10.9098   -0.7274    0.0000 H       1  UNL1        0.0660
     52 H          10.0628   -0.5005    0.0000 H       1  UNL1        0.0660
@<TRIPOS>BOND
     1     1    14    1
     2     1    16    1
     3     2    16    2
     4     3    20    1
     5     3    26    1
     6     4    21    1
     7     4    26    1
     8     5    19    1
     9     5    41    1
    10     6    24    1
    11     6    28    1
    12     7    25    1
    13     7    29    1
    14     8    27    1
    15     8    30    1
    16     9    10    1
    17     9    11    1
    18     9    16    1
    19     9    31    1
    20    10    12    1
    21    10    14    1
    22    10    32    1
    23    11    13    1
    24    11    17    1
    25    11    33    1
    26    12    15    1
    27    12    34    1
    28    12    35    1
    29    13    15   ar
    30    13    18   ar
    31    14    36    1
    32    14    37    1
    33    15    19   ar
    34    17    22   ar
    35    17    23   ar
    36    18    20   ar
    37    18    38    1
    38    19    21   ar
    39    20    21   ar
    40    22    25   ar
    41    22    39    1
    42    23    24   ar
    43    23    40    1
    44    24    27   ar
    45    25    27   ar
    46    26    42    1
    47    26    43    1
    48    28    44    1
    49    28    45    1
    50    28    46    1
    51    29    47    1
    52    29    48    1
    53    29    49    1
    54    30    50    1
    55    30    51    1
    56    30    52    1
