@<TRIPOS>MOLECULE
IMPHY004888
 76 81 0 0 0
SMALL
GASTEIGER

@<TRIPOS>ATOM
      1 CL          2.7059   -4.0440    0.0000 Cl      1  UNL1       -0.1043
      2 CL          4.4286   -4.2235    0.0000 Cl      1  UNL1       -0.1043
      3 O           5.5954   -1.7338    0.0000 O.3     1  UNL1       -0.3448
      4 O           3.9300   -0.6526    0.0000 O.3     1  UNL1       -0.3480
      5 O           8.3882    3.6036    0.0000 O.3     1  UNL1       -0.3908
      6 O          12.0027    3.6454    0.0000 O.3     1  UNL1       -0.3914
      7 C           6.6628    0.5010    0.0000 C.3     1  UNL1       -0.0233
      8 C           7.5288    0.0011    0.0000 C.3     1  UNL1       -0.0295
      9 C           5.9258   -0.1660    0.0000 C.3     1  UNL1       -0.0015
     10 C           8.3948    0.5010    0.0000 C.3     1  UNL1       -0.0305
     11 C           6.3309   -1.0738    0.0000 C.3     1  UNL1        0.0660
     12 C           8.3948    1.5010    0.0000 C.3     1  UNL1       -0.0262
     13 C           7.3196   -0.9708    0.0000 C.3     1  UNL1       -0.0226
     14 C           6.6628    1.5010    0.0000 C.3     1  UNL1       -0.0467
     15 C           4.9434   -0.2727    0.0000 C.3     1  UNL1        0.0160
     16 C           7.5288    2.0011    0.0000 C.3     1  UNL1       -0.0486
     17 C           9.2888    2.0357    0.0000 C.3     1  UNL1        0.0181
     18 C           4.7396   -1.2397    0.0000 C.3     1  UNL1        0.1735
     19 C           5.7968    1.0010    0.0000 C.3     1  UNL1       -0.0590
     20 C           9.2888   -0.0336    0.0000 C.3     1  UNL1       -0.0311
     21 C          10.1949    1.5219    0.0000 C.2     1  UNL1       -0.0624
     22 C           9.2637    3.1204    0.0000 C.3     1  UNL1        0.0669
     23 C           4.6359   -2.2343    0.0000 C.3     1  UNL1        0.0073
     24 C           4.2723    0.4687    0.0000 C.3     1  UNL1       -0.0572
     25 C          10.1949    0.4802    0.0000 C.2     1  UNL1       -0.0838
     26 C           8.4189    2.5290    0.0000 C.3     1  UNL1       -0.0532
     27 C          11.1386    2.0571    0.0000 C.3     1  UNL1       -0.0049
     28 C           3.7227   -2.6418    0.0000 C.3     1  UNL1       -0.0015
     29 C          10.1949    3.6773    0.0000 C.3     1  UNL1        0.0004
     30 C          11.1386    3.1421    0.0000 C.3     1  UNL1        0.0613
     31 C           2.9132   -2.0547    0.0000 C.3     1  UNL1       -0.0148
     32 C           3.0169   -1.0601    0.0000 C.3     1  UNL1        0.0538
     33 C           3.6190   -3.6364    0.0000 C.3     1  UNL1        0.1111
     34 C           2.0000   -2.4623    0.0000 C.3     1  UNL1       -0.0600
     35 H           8.2158   -0.4995    0.0000 H       1  UNL1        0.0310
     36 H           5.5777    0.6094    0.0000 H       1  UNL1        0.0335
     37 H           8.3883   -0.3489    0.0000 H       1  UNL1        0.0310
     38 H           6.6756   -1.8508    0.0000 H       1  UNL1        0.0600
     39 H           9.1342    1.0817    0.0000 H       1  UNL1        0.0313
     40 H           7.3187   -1.5908    0.0000 H       1  UNL1        0.0293
     41 H           7.9361   -1.0368    0.0000 H       1  UNL1        0.0293
     42 H           6.4507    2.0837    0.0000 H       1  UNL1        0.0271
     43 H           6.0522    1.3934    0.0000 H       1  UNL1        0.0271
     44 H           4.1228   -0.4945    0.0000 H       1  UNL1        0.0354
     45 H           7.9274    2.4760    0.0000 H       1  UNL1        0.0268
     46 H           7.1303    2.4760    0.0000 H       1  UNL1        0.0268
     47 H           6.1068    1.5380    0.0000 H       1  UNL1        0.0235
     48 H           5.2598    1.3110    0.0000 H       1  UNL1        0.0235
     49 H           5.4868    0.4641    0.0000 H       1  UNL1        0.0235
     50 H           8.8842   -0.5034    0.0000 H       1  UNL1        0.0310
     51 H           9.6824   -0.5126    0.0000 H       1  UNL1        0.0310
     52 H           9.2529    3.7403    0.0000 H       1  UNL1        0.0603
     53 H           4.7864   -2.8358    0.0000 H       1  UNL1        0.0321
     54 H           5.2544   -2.1905    0.0000 H       1  UNL1        0.0321
     55 H           4.7320    0.8847    0.0000 H       1  UNL1        0.0234
     56 H           3.8562    0.9283    0.0000 H       1  UNL1        0.0234
     57 H           3.8126    0.0526    0.0000 H       1  UNL1        0.0234
     58 H          10.7306    0.1682    0.0000 H       1  UNL1        0.0572
     59 H           8.7248    3.0683    0.0000 H       1  UNL1        0.0239
     60 H           7.8796    2.8349    0.0000 H       1  UNL1        0.0239
     61 H           8.1131    1.9897    0.0000 H       1  UNL1        0.0239
     62 H          11.3477    1.4734    0.0000 H       1  UNL1        0.0335
     63 H          11.7495    2.1632    0.0000 H       1  UNL1        0.0335
     64 H           4.4108   -3.1408    0.0000 H       1  UNL1        0.0332
     65 H          10.5885    4.1564    0.0000 H       1  UNL1        0.0315
     66 H           9.7903    4.1471    0.0000 H       1  UNL1        0.0315
     67 H          11.1351    3.7621    0.0000 H       1  UNL1        0.0597
     68 H           2.2251   -1.5557    0.0000 H       1  UNL1        0.0324
     69 H           2.8664   -0.4587    0.0000 H       1  UNL1        0.0564
     70 H           2.3984   -1.1039    0.0000 H       1  UNL1        0.0564
     71 H           8.3762    4.2235    0.0000 H       1  UNL1        0.2098
     72 H           3.1171   -3.2724    0.0000 H       1  UNL1        0.0637
     73 H           1.7473   -1.8961    0.0000 H       1  UNL1        0.0233
     74 H           1.4338   -2.7149    0.0000 H       1  UNL1        0.0233
     75 H           2.2527   -3.0284    0.0000 H       1  UNL1        0.0233
     76 H          12.5409    3.3375    0.0000 H       1  UNL1        0.2098
@<TRIPOS>BOND
     1     1    33    1
     2     2    33    1
     3     3    11    1
     4     3    18    1
     5     4    18    1
     6     4    32    1
     7    22     5    1
     8     5    71    1
     9    30     6    1
    10     6    76    1
    11     7     8    1
    12     7     9    1
    13     7    14    1
    14     7    19    1
    15     8    10    1
    16     8    13    1
    17     8    35    1
    18     9    11    1
    19     9    15    1
    20     9    36    1
    21    10    12    1
    22    10    20    1
    23    10    37    1
    24    11    13    1
    25    11    38    1
    26    12    16    1
    27    12    17    1
    28    12    39    1
    29    13    40    1
    30    13    41    1
    31    14    16    1
    32    14    42    1
    33    14    43    1
    34    15    18    1
    35    15    24    1
    36    15    44    1
    37    16    45    1
    38    16    46    1
    39    17    21    1
    40    17    22    1
    41    17    26    1
    42    18    23    1
    43    19    47    1
    44    19    48    1
    45    19    49    1
    46    20    25    1
    47    20    50    1
    48    20    51    1
    49    21    25    2
    50    21    27    1
    51    22    29    1
    52    22    52    1
    53    23    28    1
    54    23    53    1
    55    23    54    1
    56    24    55    1
    57    24    56    1
    58    24    57    1
    59    25    58    1
    60    26    59    1
    61    26    60    1
    62    26    61    1
    63    27    30    1
    64    27    62    1
    65    27    63    1
    66    28    31    1
    67    28    33    1
    68    28    64    1
    69    29    30    1
    70    29    65    1
    71    29    66    1
    72    30    67    1
    73    31    32    1
    74    31    34    1
    75    31    68    1
    76    32    69    1
    77    32    70    1
    78    33    72    1
    79    34    73    1
    80    34    74    1
    81    34    75    1
