@<TRIPOS>MOLECULE
IMPHY012023
 21 23 0 0 0
SMALL
GASTEIGER

@<TRIPOS>ATOM
      1 O           4.5274    1.1618    0.0000 O.2     1  UNL1       -0.4548
      2 C           5.0274   -0.3771    0.0000 C.ar    1  UNL1        0.0279
      3 C           4.0274   -0.3771    0.0000 C.ar    1  UNL1        0.0279
      4 C           5.3364    0.5740    0.0000 C.ar    1  UNL1        0.1362
      5 C           3.7183    0.5740    0.0000 C.ar    1  UNL1        0.1362
      6 C           5.7123   -1.1618    0.0000 C.ar    1  UNL1       -0.0504
      7 C           3.3424   -1.1618    0.0000 C.ar    1  UNL1       -0.0504
      8 C           6.3518    0.8063    0.0000 C.ar    1  UNL1       -0.0187
      9 C           2.7029    0.8063    0.0000 C.ar    1  UNL1       -0.0187
     10 C           6.7328   -0.9531    0.0000 C.ar    1  UNL1       -0.0610
     11 C           2.3219   -0.9531    0.0000 C.ar    1  UNL1       -0.0610
     12 C           7.0547    0.0376    0.0000 C.ar    1  UNL1       -0.0582
     13 C           2.0000    0.0376    0.0000 C.ar    1  UNL1       -0.0582
     14 H           5.5139   -1.7492    0.0000 H       1  UNL1        0.0625
     15 H           3.5408   -1.7492    0.0000 H       1  UNL1        0.0625
     16 H           6.5365    1.3981    0.0000 H       1  UNL1        0.0654
     17 H           2.5182    1.3981    0.0000 H       1  UNL1        0.0654
     18 H           7.1459   -1.4154    0.0000 H       1  UNL1        0.0618
     19 H           1.9088   -1.4154    0.0000 H       1  UNL1        0.0618
     20 H           7.6607    0.1688    0.0000 H       1  UNL1        0.0619
     21 H           1.3940    0.1688    0.0000 H       1  UNL1        0.0619
@<TRIPOS>BOND
     1     1     4   ar
     2     1     5   ar
     3     2     3   ar
     4     2     4   ar
     5     2     6   ar
     6     3     5   ar
     7     3     7   ar
     8     4     8   ar
     9     5     9   ar
    10     6    10   ar
    11     6    14    1
    12     7    11   ar
    13     7    15    1
    14     8    12   ar
    15     8    16    1
    16     9    13   ar
    17     9    17    1
    18    10    12   ar
    19    10    18    1
    20    11    13   ar
    21    11    19    1
    22    12    20    1
    23    13    21    1
