@<TRIPOS>MOLECULE
IMPHY005267
 80 84 0 0 0
SMALL
GASTEIGER

@<TRIPOS>ATOM
      1 O           8.6528    1.8122    0.0000 O.2     1  UNL1       -0.4934
      2 O           2.0000   -4.1134    0.0000 O.2     1  UNL1       -0.2968
      3 O          11.3262    1.6796    0.0000 O.3     1  UNL1       -0.3878
      4 O          11.0177    4.6637    0.0000 O.3     1  UNL1       -0.3947
      5 C           7.3931   -1.0611    0.0000 C.3     1  UNL1       -0.0164
      6 C           7.3931   -2.0611    0.0000 C.3     1  UNL1       -0.0049
      7 C           5.6610   -2.0611    0.0000 C.3     1  UNL1       -0.0136
      8 C           4.7510   -2.5680    0.0000 C.3     1  UNL1       -0.0212
      9 C           6.5271   -2.5611    0.0000 C.2     1  UNL1       -0.0634
     10 C           8.3393   -0.7564    0.0000 C.3     1  UNL1       -0.0104
     11 C           6.5271   -0.5611    0.0000 C.3     1  UNL1       -0.0457
     12 C           4.7430   -3.6096    0.0000 C.3     1  UNL1       -0.0198
     13 C           8.3393   -2.3658    0.0000 C.3     1  UNL1       -0.0428
     14 C           5.6610   -1.0611    0.0000 C.3     1  UNL1       -0.0454
     15 C           8.9229   -1.5611    0.0000 C.3     1  UNL1       -0.0451
     16 C           3.8076   -4.1593    0.0000 C.3     1  UNL1        0.0270
     17 C           3.8242   -2.0039    0.0000 C.3     1  UNL1       -0.0401
     18 C           5.6451   -4.1304    0.0000 C.3     1  UNL1       -0.0302
     19 C           7.3931   -0.0611    0.0000 C.3     1  UNL1       -0.0582
     20 C           7.3931   -3.0611    0.0000 C.3     1  UNL1       -0.0553
     21 C           6.5431   -3.6026    0.0000 C.2     1  UNL1       -0.0836
     22 C           4.7587   -1.5680    0.0000 C.3     1  UNL1       -0.0587
     23 C           8.6500    0.1941    0.0000 C.2     1  UNL1       -0.0282
     24 C           2.8763   -2.5318    0.0000 C.3     1  UNL1        0.0069
     25 C           2.8680   -3.6168    0.0000 C.2     1  UNL1        0.1392
     26 C           3.3109   -5.0272    0.0000 C.3     1  UNL1       -0.0528
     27 C           4.3109   -5.0234    0.0000 C.3     1  UNL1       -0.0528
     28 C           9.6016    0.5015    0.0000 C.3     1  UNL1        0.0113
     29 C           8.0636    1.0042    0.0000 C.2     1  UNL1        0.0847
     30 C           9.6033    1.5015    0.0000 C.3     1  UNL1        0.1291
     31 C          10.4133    2.0879    0.0000 C.3     1  UNL1        0.0969
     32 C          10.3105    3.0826    0.0000 C.3     1  UNL1        0.0089
     33 C          11.1205    3.6690    0.0000 C.3     1  UNL1        0.0492
     34 C           9.3977    3.4909    0.0000 C.3     1  UNL1       -0.0578
     35 H           6.3972   -1.6361    0.0000 H       1  UNL1        0.0351
     36 H           8.9518   -0.6602    0.0000 H       1  UNL1        0.0352
     37 H           6.9256   -0.0862    0.0000 H       1  UNL1        0.0271
     38 H           6.1285   -0.0862    0.0000 H       1  UNL1        0.0271
     39 H           4.7454   -4.2296    0.0000 H       1  UNL1        0.0318
     40 H           8.0883   -2.9328    0.0000 H       1  UNL1        0.0274
     41 H           8.8767   -2.6751    0.0000 H       1  UNL1        0.0274
     42 H           5.4490   -0.4785    0.0000 H       1  UNL1        0.0271
     43 H           5.0504   -1.1688    0.0000 H       1  UNL1        0.0271
     44 H           9.3838   -1.9758    0.0000 H       1  UNL1        0.0271
     45 H           9.3838   -1.1464    0.0000 H       1  UNL1        0.0271
     46 H           4.2324   -1.5372    0.0000 H       1  UNL1        0.0275
     47 H           3.4343   -1.5218    0.0000 H       1  UNL1        0.0275
     48 H           5.2478   -4.6064    0.0000 H       1  UNL1        0.0311
     49 H           6.0460   -4.6033    0.0000 H       1  UNL1        0.0311
     50 H           8.0131   -0.0611    0.0000 H       1  UNL1        0.0236
     51 H           7.3931    0.5589    0.0000 H       1  UNL1        0.0236
     52 H           6.7731   -0.0611    0.0000 H       1  UNL1        0.0236
     53 H           6.7731   -3.0611    0.0000 H       1  UNL1        0.0238
     54 H           7.3931   -3.6811    0.0000 H       1  UNL1        0.0238
     55 H           8.0131   -3.0611    0.0000 H       1  UNL1        0.0238
     56 H           7.0836   -3.9064    0.0000 H       1  UNL1        0.0572
     57 H           5.3787   -1.5728    0.0000 H       1  UNL1        0.0235
     58 H           4.7635   -0.9480    0.0000 H       1  UNL1        0.0235
     59 H           4.1388   -1.5632    0.0000 H       1  UNL1        0.0235
     60 H           2.6718   -1.9465    0.0000 H       1  UNL1        0.0342
     61 H           2.2647   -2.6332    0.0000 H       1  UNL1        0.0342
     62 H           3.7752   -5.3354    0.0000 H       1  UNL1        0.0239
     63 H           4.6230   -5.5591    0.0000 H       1  UNL1        0.0239
     64 H           4.8466   -4.7113    0.0000 H       1  UNL1        0.0239
     65 H           2.7728   -4.7193    0.0000 H       1  UNL1        0.0239
     66 H           3.0030   -5.5654    0.0000 H       1  UNL1        0.0239
     67 H           3.8490   -5.3352    0.0000 H       1  UNL1        0.0239
     68 H           9.7294   -0.1052    0.0000 H       1  UNL1        0.0348
     69 H          10.2183    0.5652    0.0000 H       1  UNL1        0.0348
     70 H           7.4436    1.0052    0.0000 H       1  UNL1        0.1023
     71 H           9.4718    2.3413    0.0000 H       1  UNL1        0.0762
     72 H          10.9155    2.4514    0.0000 H       1  UNL1        0.0634
     73 H          10.2468    3.6993    0.0000 H       1  UNL1        0.0346
     74 H          11.8284    2.0431    0.0000 H       1  UNL1        0.2099
     75 H          11.3914    3.1112    0.0000 H       1  UNL1        0.0560
     76 H          11.7168    3.8388    0.0000 H       1  UNL1        0.0560
     77 H           9.6508    4.0569    0.0000 H       1  UNL1        0.0234
     78 H           8.8317    3.7441    0.0000 H       1  UNL1        0.0234
     79 H           9.1445    2.9250    0.0000 H       1  UNL1        0.0234
     80 H          11.5200    5.0272    0.0000 H       1  UNL1        0.2094
@<TRIPOS>BOND
     1     1    29    1
     2     1    30    1
     3     2    25    2
     4    31     3    1
     5     3    74    1
     6     4    33    1
     7     4    80    1
     8     5     6    1
     9     5    10    1
    10     5    11    1
    11     5    19    1
    12     6     9    1
    13     6    13    1
    14     6    20    1
    15     7     8    1
    16     7     9    1
    17     7    14    1
    18     7    35    1
    19     8    12    1
    20     8    17    1
    21     8    22    1
    22     9    21    2
    23    10    15    1
    24    10    23    1
    25    10    36    1
    26    11    14    1
    27    11    37    1
    28    11    38    1
    29    12    16    1
    30    12    18    1
    31    12    39    1
    32    13    15    1
    33    13    40    1
    34    13    41    1
    35    14    42    1
    36    14    43    1
    37    15    44    1
    38    15    45    1
    39    16    25    1
    40    16    26    1
    41    16    27    1
    42    17    24    1
    43    17    46    1
    44    17    47    1
    45    18    21    1
    46    18    48    1
    47    18    49    1
    48    19    50    1
    49    19    51    1
    50    19    52    1
    51    20    53    1
    52    20    54    1
    53    20    55    1
    54    21    56    1
    55    22    57    1
    56    22    58    1
    57    22    59    1
    58    23    28    1
    59    23    29    2
    60    24    25    1
    61    24    60    1
    62    24    61    1
    63    26    65    1
    64    26    66    1
    65    26    67    1
    66    27    62    1
    67    27    63    1
    68    27    64    1
    69    28    30    1
    70    28    68    1
    71    28    69    1
    72    29    70    1
    73    30    31    1
    74    30    71    1
    75    31    32    1
    76    31    72    1
    77    32    33    1
    78    32    34    1
    79    32    73    1
    80    33    75    1
    81    33    76    1
    82    34    77    1
    83    34    78    1
    84    34    79    1
