@<TRIPOS>MOLECULE
IMPHY016701
 35 34 0 0 0
SMALL
GASTEIGER

@<TRIPOS>ATOM
      1 O           7.1962    0.2500    0.0000 O.3     1  UNL1       -0.4645
      2 O           8.0622   -1.2500    0.0000 O.2     1  UNL1       -0.2506
      3 C           3.7320    0.2500    0.0000 C.3     1  UNL1       -0.0506
      4 C           2.8660   -0.2500    0.0000 C.3     1  UNL1       -0.0467
      5 C           4.5981   -0.2500    0.0000 C.3     1  UNL1       -0.0497
      6 C           5.4641    0.2500    0.0000 C.3     1  UNL1       -0.0185
      7 C           2.0000    0.2500    0.0000 C.3     1  UNL1       -0.0627
      8 C           2.8660   -1.2500    0.0000 C.3     1  UNL1       -0.0627
      9 C           6.3301   -0.2500    0.0000 C.3     1  UNL1        0.0925
     10 C           8.9282    0.2500    0.0000 C.3     1  UNL1        0.0508
     11 C           8.0622   -0.2500    0.0000 C.2     1  UNL1        0.3097
     12 C           9.7942   -0.2500    0.0000 C.3     1  UNL1       -0.0525
     13 C           8.9282    1.2500    0.0000 C.3     1  UNL1       -0.0525
     14 H           4.1306    0.7249    0.0000 H       1  UNL1        0.0268
     15 H           3.3335    0.7249    0.0000 H       1  UNL1        0.0268
     16 H           2.8660    0.3700    0.0000 H       1  UNL1        0.0295
     17 H           4.1996   -0.7249    0.0000 H       1  UNL1        0.0266
     18 H           4.9966   -0.7249    0.0000 H       1  UNL1        0.0266
     19 H           5.8626    0.7249    0.0000 H       1  UNL1        0.0298
     20 H           5.0656    0.7249    0.0000 H       1  UNL1        0.0298
     21 H           2.3100    0.7869    0.0000 H       1  UNL1        0.0232
     22 H           1.4631    0.5600    0.0000 H       1  UNL1        0.0232
     23 H           1.6900   -0.2869    0.0000 H       1  UNL1        0.0232
     24 H           2.2460   -1.2500    0.0000 H       1  UNL1        0.0232
     25 H           2.8660   -1.8700    0.0000 H       1  UNL1        0.0232
     26 H           3.4860   -1.2500    0.0000 H       1  UNL1        0.0232
     27 H           5.9316   -0.7249    0.0000 H       1  UNL1        0.0697
     28 H           6.7287   -0.7249    0.0000 H       1  UNL1        0.0697
     29 H           9.4651    0.5600    0.0000 H       1  UNL1        0.0408
     30 H           9.4842   -0.7869    0.0000 H       1  UNL1        0.0237
     31 H          10.3312   -0.5600    0.0000 H       1  UNL1        0.0237
     32 H          10.1042    0.2869    0.0000 H       1  UNL1        0.0237
     33 H           9.5482    1.2500    0.0000 H       1  UNL1        0.0237
     34 H           8.9282    1.8700    0.0000 H       1  UNL1        0.0237
     35 H           8.3082    1.2500    0.0000 H       1  UNL1        0.0237
@<TRIPOS>BOND
     1     1     9    1
     2     1    11    1
     3     2    11    2
     4     3     4    1
     5     3     5    1
     6     3    14    1
     7     3    15    1
     8     4     7    1
     9     4     8    1
    10     4    16    1
    11     5     6    1
    12     5    17    1
    13     5    18    1
    14     6     9    1
    15     6    19    1
    16     6    20    1
    17     7    21    1
    18     7    22    1
    19     7    23    1
    20     8    24    1
    21     8    25    1
    22     8    26    1
    23     9    27    1
    24     9    28    1
    25    10    11    1
    26    10    12    1
    27    10    13    1
    28    10    29    1
    29    12    30    1
    30    12    31    1
    31    12    32    1
    32    13    33    1
    33    13    34    1
    34    13    35    1
