@<TRIPOS>MOLECULE
IMPHY001415
 87 90 0 0 0
SMALL
GASTEIGER

@<TRIPOS>ATOM
      1 O           7.4149   -3.0843    0.0000 O.3     1  UNL1       -0.4606
      2 O           2.0000   -3.1052    0.0000 O.2     1  UNL1       -0.2921
      3 O           8.2928    2.8972    0.0000 O.3     1  UNL1       -0.3947
      4 O           9.2713    3.1034    0.0000 O.3     1  UNL1       -0.3842
      5 O           6.5662   -4.5942    0.0000 O.2     1  UNL1       -0.2512
      6 O          11.5855    1.8210    0.0000 O.2     1  UNL1       -0.2916
      7 O          11.5390    4.4664    0.0000 O.3     1  UNL1       -0.3815
      8 C           6.5271   -1.5529    0.0000 C.3     1  UNL1        0.0300
      9 C           5.6610   -1.0529    0.0000 C.3     1  UNL1       -0.0194
     10 C           4.7510   -1.5597    0.0000 C.3     1  UNL1       -0.0061
     11 C           7.3931   -0.0529    0.0000 C.3     1  UNL1       -0.0070
     12 C           4.7430   -2.6013    0.0000 C.3     1  UNL1       -0.0164
     13 C           7.3931   -1.0529    0.0000 C.2     1  UNL1       -0.0576
     14 C           6.5431   -2.5944    0.0000 C.3     1  UNL1        0.1126
     15 C           5.6610   -0.0529    0.0000 C.3     1  UNL1       -0.0477
     16 C           6.5271    0.4471    0.0000 C.3     1  UNL1       -0.0433
     17 C           8.3393    0.2519    0.0000 C.3     1  UNL1       -0.0235
     18 C           5.6451   -3.1221    0.0000 C.3     1  UNL1       -0.0103
     19 C           3.8076   -3.1510    0.0000 C.3     1  UNL1        0.0311
     20 C           7.3931   -2.0529    0.0000 C.3     1  UNL1       -0.0521
     21 C           8.9229   -0.5529    0.0000 C.3     1  UNL1       -0.0305
     22 C           8.3393   -1.3576    0.0000 C.2     1  UNL1       -0.0833
     23 C           4.7587   -0.5597    0.0000 C.3     1  UNL1       -0.0555
     24 C           3.8242   -0.9956    0.0000 C.2     1  UNL1       -0.0742
     25 C           7.3931    0.9471    0.0000 C.3     1  UNL1       -0.0555
     26 C           8.6500    1.2024    0.0000 C.3     1  UNL1       -0.0112
     27 C           2.8680   -2.6085    0.0000 C.2     1  UNL1        0.1617
     28 C           2.8763   -1.5236    0.0000 C.2     1  UNL1       -0.0221
     29 C           3.3109   -4.0190    0.0000 C.3     1  UNL1       -0.0525
     30 C           4.3109   -4.0151    0.0000 C.3     1  UNL1       -0.0525
     31 C           9.6285    1.4086    0.0000 C.3     1  UNL1       -0.0146
     32 C           7.9821    1.9467    0.0000 C.3     1  UNL1        0.0474
     33 C           7.4264   -4.0843    0.0000 C.2     1  UNL1        0.3042
     34 C           9.9391    2.3591    0.0000 C.3     1  UNL1        0.1162
     35 C           8.2982   -4.5742    0.0000 C.3     1  UNL1        0.0332
     36 C          10.9176    2.5653    0.0000 C.2     1  UNL1        0.1921
     37 C          11.2283    3.5159    0.0000 C.3     1  UNL1        0.1206
     38 C          12.1788    3.2052    0.0000 C.3     1  UNL1       -0.0293
     39 C          10.2778    3.8265    0.0000 C.3     1  UNL1       -0.0293
     40 H           6.3972   -0.6279    0.0000 H       1  UNL1        0.0319
     41 H           4.7463   -3.4513    0.0000 H       1  UNL1        0.0320
     42 H           6.5491   -3.2143    0.0000 H       1  UNL1        0.0743
     43 H           5.4490    0.5297    0.0000 H       1  UNL1        0.0269
     44 H           5.0504   -0.1605    0.0000 H       1  UNL1        0.0269
     45 H           6.9256    0.9221    0.0000 H       1  UNL1        0.0274
     46 H           6.1285    0.9221    0.0000 H       1  UNL1        0.0274
     47 H           9.1790    0.3837    0.0000 H       1  UNL1        0.0315
     48 H           5.2478   -3.5981    0.0000 H       1  UNL1        0.0304
     49 H           6.0460   -3.5950    0.0000 H       1  UNL1        0.0304
     50 H           7.0831   -2.5898    0.0000 H       1  UNL1        0.0239
     51 H           7.9300   -2.3629    0.0000 H       1  UNL1        0.0239
     52 H           7.7031   -1.5159    0.0000 H       1  UNL1        0.0239
     53 H           9.3838   -0.9676    0.0000 H       1  UNL1        0.0310
     54 H           9.3838   -0.1381    0.0000 H       1  UNL1        0.0310
     55 H           8.5319   -1.9469    0.0000 H       1  UNL1        0.0572
     56 H           5.3787   -0.5645    0.0000 H       1  UNL1        0.0238
     57 H           4.7635    0.0602    0.0000 H       1  UNL1        0.0238
     58 H           4.1388   -0.5550    0.0000 H       1  UNL1        0.0238
     59 H           3.8361   -0.3757    0.0000 H       1  UNL1        0.0579
     60 H           8.0131    0.9471    0.0000 H       1  UNL1        0.0238
     61 H           7.3931    1.5671    0.0000 H       1  UNL1        0.0238
     62 H           6.7731    0.9471    0.0000 H       1  UNL1        0.0238
     63 H           9.5176    0.7409    0.0000 H       1  UNL1        0.0327
     64 H           2.3430   -1.2074    0.0000 H       1  UNL1        0.0649
     65 H           2.7728   -3.7111    0.0000 H       1  UNL1        0.0239
     66 H           3.0030   -4.5571    0.0000 H       1  UNL1        0.0239
     67 H           3.8490   -4.3269    0.0000 H       1  UNL1        0.0239
     68 H           3.7752   -4.3272    0.0000 H       1  UNL1        0.0239
     69 H           4.6230   -4.5509    0.0000 H       1  UNL1        0.0239
     70 H           4.8466   -3.7031    0.0000 H       1  UNL1        0.0239
     71 H           9.6490    0.7889    0.0000 H       1  UNL1        0.0298
     72 H          10.2423    1.3212    0.0000 H       1  UNL1        0.0298
     73 H           7.4352    2.2387    0.0000 H       1  UNL1        0.0560
     74 H           7.5996    1.4588    0.0000 H       1  UNL1        0.0560
     75 H          10.1317    2.9484    0.0000 H       1  UNL1        0.0674
     76 H           7.8787    3.3587    0.0000 H       1  UNL1        0.2094
     77 H           7.9944   -5.1147    0.0000 H       1  UNL1        0.0342
     78 H           8.8387   -4.8780    0.0000 H       1  UNL1        0.0342
     79 H           8.6020   -4.0337    0.0000 H       1  UNL1        0.0342
     80 H           9.4639    3.6928    0.0000 H       1  UNL1        0.2104
     81 H          11.9862    2.6159    0.0000 H       1  UNL1        0.0261
     82 H          12.7681    3.0126    0.0000 H       1  UNL1        0.0261
     83 H          12.3714    3.7945    0.0000 H       1  UNL1        0.0261
     84 H          10.4704    4.4158    0.0000 H       1  UNL1        0.0261
     85 H           9.6885    4.0191    0.0000 H       1  UNL1        0.0261
     86 H          10.0852    3.2372    0.0000 H       1  UNL1        0.0261
     87 H          12.1456    4.5942    0.0000 H       1  UNL1        0.2107
@<TRIPOS>BOND
     1    14     1    1
     2     1    33    1
     3     2    27    2
     4     3    32    1
     5     3    76    1
     6    34     4    1
     7     4    80    1
     8     5    33    2
     9     6    36    2
    10     7    37    1
    11     7    87    1
    12     8     9    1
    13     8    13    1
    14     8    14    1
    15     8    20    1
    16     9    10    1
    17     9    15    1
    18     9    40    1
    19    10    12    1
    20    10    23    1
    21    10    24    1
    22    11    13    1
    23    11    16    1
    24    11    17    1
    25    11    25    1
    26    12    18    1
    27    12    19    1
    28    12    41    1
    29    13    22    2
    30    14    18    1
    31    14    42    1
    32    15    16    1
    33    15    43    1
    34    15    44    1
    35    16    45    1
    36    16    46    1
    37    17    21    1
    38    17    26    1
    39    17    47    1
    40    18    48    1
    41    18    49    1
    42    19    27    1
    43    19    29    1
    44    19    30    1
    45    20    50    1
    46    20    51    1
    47    20    52    1
    48    21    22    1
    49    21    53    1
    50    21    54    1
    51    22    55    1
    52    23    56    1
    53    23    57    1
    54    23    58    1
    55    24    28    2
    56    24    59    1
    57    25    60    1
    58    25    61    1
    59    25    62    1
    60    26    31    1
    61    26    32    1
    62    26    63    1
    63    27    28    1
    64    28    64    1
    65    29    65    1
    66    29    66    1
    67    29    67    1
    68    30    68    1
    69    30    69    1
    70    30    70    1
    71    31    34    1
    72    31    71    1
    73    31    72    1
    74    32    73    1
    75    32    74    1
    76    33    35    1
    77    34    36    1
    78    34    75    1
    79    35    77    1
    80    35    78    1
    81    35    79    1
    82    36    37    1
    83    37    38    1
    84    37    39    1
    85    38    81    1
    86    38    82    1
    87    38    83    1
    88    39    84    1
    89    39    85    1
    90    39    86    1
