@<TRIPOS>MOLECULE
IMPHY017595
 45 46 0 0 0
SMALL
GASTEIGER

@<TRIPOS>ATOM
      1 O           3.7320   -0.5000    0.0000 O.3     1  UNL1       -0.4604
      2 O           2.8660    1.0000    0.0000 O.2     1  UNL1       -0.2512
      3 C           8.0622   -0.0000    0.0000 C.3     1  UNL1       -0.0048
      4 C           8.9561   -0.5347    0.0000 C.3     1  UNL1       -0.0342
      5 C           8.0622    1.0000    0.0000 C.2     1  UNL1       -0.0667
      6 C           7.1962   -0.5000    0.0000 C.3     1  UNL1       -0.0220
      7 C           9.8622   -0.0208    0.0000 C.3     1  UNL1       -0.0462
      8 C           7.1962    1.5000    0.0000 C.3     1  UNL1       -0.0275
      9 C           8.0622   -1.0000    0.0000 C.3     1  UNL1       -0.0553
     10 C           6.3301   -0.0000    0.0000 C.2     1  UNL1       -0.0663
     11 C           6.3301    1.0000    0.0000 C.3     1  UNL1       -0.0277
     12 C           9.8622    1.0208    0.0000 C.3     1  UNL1       -0.0342
     13 C           8.9561    1.5346    0.0000 C.2     1  UNL1       -0.0842
     14 C           8.9446   -1.5346    0.0000 C.3     1  UNL1       -0.0616
     15 C           5.4641   -0.5000    0.0000 C.2     1  UNL1       -0.0364
     16 C           4.5981   -0.0000    0.0000 C.3     1  UNL1        0.1136
     17 C           5.4641   -1.5000    0.0000 C.3     1  UNL1       -0.0404
     18 C           2.8660   -0.0000    0.0000 C.2     1  UNL1        0.3042
     19 C           2.0000   -0.5000    0.0000 C.3     1  UNL1        0.0332
     20 H           9.4900   -0.8499    0.0000 H       1  UNL1        0.0307
     21 H           6.7976   -0.9750    0.0000 H       1  UNL1        0.0319
     22 H           7.5947   -0.9750    0.0000 H       1  UNL1        0.0319
     23 H          10.0712   -0.6045    0.0000 H       1  UNL1        0.0271
     24 H          10.4730    0.0852    0.0000 H       1  UNL1        0.0271
     25 H           7.5947    1.9749    0.0000 H       1  UNL1        0.0313
     26 H           6.7976    1.9749    0.0000 H       1  UNL1        0.0313
     27 H           7.4422   -1.0000    0.0000 H       1  UNL1        0.0238
     28 H           8.0622   -1.6200    0.0000 H       1  UNL1        0.0238
     29 H           8.6822   -1.0000    0.0000 H       1  UNL1        0.0238
     30 H           6.1181    1.5826    0.0000 H       1  UNL1        0.0313
     31 H           5.7196    0.8923    0.0000 H       1  UNL1        0.0313
     32 H          10.4730    0.9147    0.0000 H       1  UNL1        0.0307
     33 H          10.0712    1.6045    0.0000 H       1  UNL1        0.0307
     34 H           8.9490    2.1546    0.0000 H       1  UNL1        0.0572
     35 H           8.3246   -1.5275    0.0000 H       1  UNL1        0.0233
     36 H           8.9374   -2.1546    0.0000 H       1  UNL1        0.0233
     37 H           9.5645   -1.5418    0.0000 H       1  UNL1        0.0233
     38 H           4.9966    0.4749    0.0000 H       1  UNL1        0.0745
     39 H           4.1996    0.4749    0.0000 H       1  UNL1        0.0745
     40 H           4.8441   -1.5000    0.0000 H       1  UNL1        0.0276
     41 H           5.4641   -2.1200    0.0000 H       1  UNL1        0.0276
     42 H           6.0841   -1.5000    0.0000 H       1  UNL1        0.0276
     43 H           1.6900    0.0369    0.0000 H       1  UNL1        0.0342
     44 H           1.4631   -0.8100    0.0000 H       1  UNL1        0.0342
     45 H           2.3100   -1.0370    0.0000 H       1  UNL1        0.0342
@<TRIPOS>BOND
     1     1    16    1
     2     1    18    1
     3     2    18    2
     4     3     4    1
     5     3     5    1
     6     3     6    1
     7     3     9    1
     8     4     7    1
     9     4    14    1
    10     4    20    1
    11     5     8    1
    12     5    13    2
    13     6    10    1
    14     6    21    1
    15     6    22    1
    16     7    12    1
    17     7    23    1
    18     7    24    1
    19     8    11    1
    20     8    25    1
    21     8    26    1
    22     9    27    1
    23     9    28    1
    24     9    29    1
    25    10    11    1
    26    10    15    2
    27    11    30    1
    28    11    31    1
    29    12    13    1
    30    12    32    1
    31    12    33    1
    32    13    34    1
    33    14    35    1
    34    14    36    1
    35    14    37    1
    36    15    16    1
    37    15    17    1
    38    16    38    1
    39    16    39    1
    40    17    40    1
    41    17    41    1
    42    17    42    1
    43    18    19    1
    44    19    43    1
    45    19    44    1
    46    19    45    1
