@<TRIPOS>MOLECULE
IMPHY013702
 78 84 0 0 0
SMALL
GASTEIGER

@<TRIPOS>ATOM
      1 O           3.0802   -0.1267    0.0000 O.3     1  UNL1       -0.4599
      2 O           8.2891    3.4514    0.0000 O.3     1  UNL1       -0.4564
      3 O           7.5111   -0.6449    0.0000 O.3     1  UNL1       -0.3845
      4 O           2.4708    1.5478    0.0000 O.2     1  UNL1       -0.2502
      5 O           2.5028   -2.5837    0.0000 O.3     1  UNL1       -0.3852
      6 O           6.2634   -2.5822    0.0000 O.3     1  UNL1       -0.3845
      7 O           3.3150   -3.9305    0.0000 O.3     1  UNL1       -0.3849
      8 O           9.7257    4.4670    0.0000 O.2     1  UNL1       -0.2505
      9 C           4.1837    1.0566    0.0000 C.3     1  UNL1        0.0813
     10 C           5.5564    1.6486    0.0000 C.3     1  UNL1        0.0001
     11 C           5.8153    2.6146    0.0000 C.3     1  UNL1       -0.0057
     12 C           3.8417    1.9963    0.0000 C.3     1  UNL1       -0.0270
     13 C           5.0786    3.5972    0.0000 C.3     1  UNL1       -0.0361
     14 C           4.6686    0.1820    0.0000 C.3     1  UNL1        0.0132
     15 C           6.9554    1.1398    0.0000 C.2     1  UNL1       -0.0313
     16 C           7.2142    2.1057    0.0000 C.2     1  UNL1       -0.0211
     17 C           3.9866   -0.5494    0.0000 C.3     1  UNL1        0.1162
     18 C           3.2021    0.8658    0.0000 C.2     1  UNL1        0.3146
     19 C           8.1158    2.4919    0.0000 C.3     1  UNL1        0.1285
     20 C           7.5431    0.3546    0.0000 C.3     1  UNL1        0.0849
     21 C           5.6459    0.0997    0.0000 C.3     1  UNL1       -0.0429
     22 C           4.1368   -1.5186    0.0000 C.3     1  UNL1        0.0514
     23 C           6.0741    3.5805    0.0000 C.3     1  UNL1       -0.0557
     24 C           8.9811    2.0301    0.0000 C.3     1  UNL1        0.0128
     25 C           8.5233    0.3219    0.0000 C.3     1  UNL1       -0.0200
     26 C           6.1931   -0.7143    0.0000 C.3     1  UNL1       -0.0200
     27 C           3.4150   -2.1740    0.0000 C.3     1  UNL1        0.1025
     28 C           4.9870   -2.0077    0.0000 C.2     1  UNL1       -0.0307
     29 C           9.1621    1.0662    0.0000 C.3     1  UNL1       -0.0429
     30 C           5.9004   -1.6504    0.0000 C.3     1  UNL1        0.0848
     31 C           9.6817    2.7081    0.0000 C.3     1  UNL1        0.0601
     32 C           6.7417   -0.2435    0.0000 C.3     1  UNL1       -0.0322
     33 C           3.8137   -3.0637    0.0000 C.3     1  UNL1        0.1027
     34 C           4.7833   -2.9611    0.0000 C.2     1  UNL1       -0.0508
     35 C           9.2549    3.5847    0.0000 C.2     1  UNL1        0.3109
     36 C           2.7434   -1.4330    0.0000 C.3     1  UNL1       -0.0326
     37 C           6.8552   -1.9475    0.0000 C.3     1  UNL1       -0.0322
     38 C          10.6665    2.5347    0.0000 C.3     1  UNL1       -0.0519
     39 H           6.0180    2.0626    0.0000 H       1  UNL1        0.0358
     40 H           3.6474    2.5851    0.0000 H       1  UNL1        0.0284
     41 H           3.2560    1.7931    0.0000 H       1  UNL1        0.0284
     42 H           5.3965    4.1295    0.0000 H       1  UNL1        0.0280
     43 H           4.4655    3.6891    0.0000 H       1  UNL1        0.0280
     44 H           5.1303    0.8956    0.0000 H       1  UNL1        0.0347
     45 H           3.3069   -1.0598    0.0000 H       1  UNL1        0.0744
     46 H           7.4508    3.0213    0.0000 H       1  UNL1        0.0785
     47 H           6.2247    0.3219    0.0000 H       1  UNL1        0.0270
     48 H           5.5586    0.7135    0.0000 H       1  UNL1        0.0270
     49 H           4.6481   -1.1678    0.0000 H       1  UNL1        0.0412
     50 H           6.6730    3.4200    0.0000 H       1  UNL1        0.0238
     51 H           6.2345    4.1794    0.0000 H       1  UNL1        0.0238
     52 H           5.4752    3.7410    0.0000 H       1  UNL1        0.0238
     53 H           9.7910    1.7724    0.0000 H       1  UNL1        0.0348
     54 H           8.3648   -0.2775    0.0000 H       1  UNL1        0.0296
     55 H           9.0721    0.0334    0.0000 H       1  UNL1        0.0296
     56 H           6.7285   -1.0268    0.0000 H       1  UNL1        0.0296
     57 H           6.6173   -0.2622    0.0000 H       1  UNL1        0.0296
     58 H           9.5305    0.5675    0.0000 H       1  UNL1        0.0270
     59 H           9.7305    1.3138    0.0000 H       1  UNL1        0.0270
     60 H          10.0549    3.2032    0.0000 H       1  UNL1        0.0415
     61 H           6.3709    0.2533    0.0000 H       1  UNL1        0.0260
     62 H           6.2448   -0.6144    0.0000 H       1  UNL1        0.0260
     63 H           7.1126   -0.7404    0.0000 H       1  UNL1        0.0260
     64 H           3.1945   -3.0325    0.0000 H       1  UNL1        0.0667
     65 H           5.1980   -3.4220    0.0000 H       1  UNL1        0.0599
     66 H           8.0378   -0.9719    0.0000 H       1  UNL1        0.2106
     67 H           3.2028   -1.0166    0.0000 H       1  UNL1        0.0258
     68 H           2.3271   -0.9736    0.0000 H       1  UNL1        0.0258
     69 H           2.2840   -1.8494    0.0000 H       1  UNL1        0.0258
     70 H           6.6710   -2.5395    0.0000 H       1  UNL1        0.0260
     71 H           7.4472   -2.1317    0.0000 H       1  UNL1        0.0260
     72 H           7.0394   -1.3555    0.0000 H       1  UNL1        0.0260
     73 H          10.5590    1.9241    0.0000 H       1  UNL1        0.0238
     74 H          11.2771    2.4271    0.0000 H       1  UNL1        0.0238
     75 H          10.7741    3.1453    0.0000 H       1  UNL1        0.0238
     76 H           2.0000   -2.2209    0.0000 H       1  UNL1        0.2103
     77 H           6.8762   -2.6761    0.0000 H       1  UNL1        0.2106
     78 H           3.6259   -4.4670    0.0000 H       1  UNL1        0.2103
@<TRIPOS>BOND
     1     1    17    1
     2     1    18    1
     3     2    19    1
     4     2    35    1
     5    20     3    1
     6     3    66    1
     7     4    18    2
     8     5    27    1
     9     5    76    1
    10     6    30    1
    11     6    77    1
    12     7    33    1
    13     7    78    1
    14     8    35    2
    15     9    10    1
    16     9    12    1
    17     9    14    1
    18     9    18    1
    19    10    13    1
    20    10    15    1
    21    10    39    1
    22    11    12    1
    23    11    13    1
    24    11    16    1
    25    11    23    1
    26    12    40    1
    27    12    41    1
    28    13    42    1
    29    13    43    1
    30    14    17    1
    31    14    21    1
    32    14    44    1
    33    15    16    2
    34    15    20    1
    35    16    19    1
    36    17    22    1
    37    17    45    1
    38    19    24    1
    39    19    46    1
    40    20    25    1
    41    20    32    1
    42    21    26    1
    43    21    47    1
    44    21    48    1
    45    22    27    1
    46    22    28    1
    47    22    49    1
    48    23    50    1
    49    23    51    1
    50    23    52    1
    51    24    29    1
    52    24    31    1
    53    24    53    1
    54    25    29    1
    55    25    54    1
    56    25    55    1
    57    26    30    1
    58    26    56    1
    59    26    57    1
    60    27    33    1
    61    27    36    1
    62    28    30    1
    63    28    34    2
    64    29    58    1
    65    29    59    1
    66    30    37    1
    67    31    35    1
    68    31    38    1
    69    31    60    1
    70    32    61    1
    71    32    62    1
    72    32    63    1
    73    33    34    1
    74    33    64    1
    75    34    65    1
    76    36    67    1
    77    36    68    1
    78    36    69    1
    79    37    70    1
    80    37    71    1
    81    37    72    1
    82    38    73    1
    83    38    74    1
    84    38    75    1
