@<TRIPOS>MOLECULE
IMPHY001875
 54 55 0 0 0
SMALL
GASTEIGER

@<TRIPOS>ATOM
      1 O           4.2690   -2.0000    0.0000 O.2     1  UNL1       -0.2708
      2 O           9.4651    2.0000    0.0000 O.2     1  UNL1       -0.2708
      3 O           2.5369   -7.0000    0.0000 O.3     1  UNL1       -0.5033
      4 O          11.1972    7.0000    0.0000 O.3     1  UNL1       -0.5033
      5 O           4.2690   -8.0000    0.0000 O.3     1  UNL1       -0.5033
      6 O           9.4651    8.0000    0.0000 O.3     1  UNL1       -0.5033
      7 N           6.0010   -2.0000    0.0000 N.am    1  UNL1       -0.3118
      8 N           7.7331    2.0000    0.0000 N.am    1  UNL1       -0.3118
      9 C           6.8671   -0.5000    0.0000 C.3     1  UNL1       -0.0360
     10 C           6.8671    0.5000    0.0000 C.3     1  UNL1       -0.0360
     11 C           6.0010   -1.0000    0.0000 C.3     1  UNL1        0.0119
     12 C           7.7331    1.0000    0.0000 C.3     1  UNL1        0.0119
     13 C           8.5991    2.5000    0.0000 C.2     1  UNL1        0.2369
     14 C           5.1350   -2.5000    0.0000 C.2     1  UNL1        0.2369
     15 C           5.1350   -3.5000    0.0000 C.2     1  UNL1        0.0007
     16 C           8.5991    3.5000    0.0000 C.2     1  UNL1        0.0007
     17 C           4.2690   -5.0000    0.0000 C.ar    1  UNL1       -0.0212
     18 C           9.4651    5.0000    0.0000 C.ar    1  UNL1       -0.0212
     19 C           4.2690   -4.0000    0.0000 C.2     1  UNL1       -0.0496
     20 C           9.4651    4.0000    0.0000 C.2     1  UNL1       -0.0496
     21 C           3.4030   -5.5000    0.0000 C.ar    1  UNL1       -0.0094
     22 C          10.3312    5.5000    0.0000 C.ar    1  UNL1       -0.0094
     23 C           5.1350   -5.5000    0.0000 C.ar    1  UNL1       -0.0509
     24 C           8.5991    5.5000    0.0000 C.ar    1  UNL1       -0.0509
     25 C           3.4030   -6.5000    0.0000 C.ar    1  UNL1        0.1588
     26 C          10.3312    6.5000    0.0000 C.ar    1  UNL1        0.1588
     27 C           5.1350   -6.5000    0.0000 C.ar    1  UNL1       -0.0160
     28 C           8.5991    6.5000    0.0000 C.ar    1  UNL1       -0.0160
     29 C           4.2690   -7.0000    0.0000 C.ar    1  UNL1        0.1582
     30 C           9.4651    7.0000    0.0000 C.ar    1  UNL1        0.1582
     31 H           6.6550    1.0826    0.0000 H       1  UNL1        0.0281
     32 H           6.2565    0.3923    0.0000 H       1  UNL1        0.0281
     33 H           7.0791   -1.0826    0.0000 H       1  UNL1        0.0281
     34 H           7.4776   -0.3923    0.0000 H       1  UNL1        0.0281
     35 H           5.7890   -0.4174    0.0000 H       1  UNL1        0.0462
     36 H           5.3905   -1.1077    0.0000 H       1  UNL1        0.0462
     37 H           7.9451    0.4174    0.0000 H       1  UNL1        0.0462
     38 H           8.3437    1.1077    0.0000 H       1  UNL1        0.0462
     39 H           6.5380   -2.3100    0.0000 H       1  UNL1        0.1490
     40 H           7.1962    2.3100    0.0000 H       1  UNL1        0.1490
     41 H           5.6720   -3.8100    0.0000 H       1  UNL1        0.0669
     42 H           8.0622    3.8100    0.0000 H       1  UNL1        0.0669
     43 H           3.7320   -3.6900    0.0000 H       1  UNL1        0.0625
     44 H          10.0021    3.6900    0.0000 H       1  UNL1        0.0625
     45 H           2.8660   -5.1900    0.0000 H       1  UNL1        0.0661
     46 H          10.8681    5.1900    0.0000 H       1  UNL1        0.0661
     47 H           5.6720   -5.1900    0.0000 H       1  UNL1        0.0625
     48 H           8.0622    5.1900    0.0000 H       1  UNL1        0.0625
     49 H           5.6720   -6.8100    0.0000 H       1  UNL1        0.0655
     50 H           8.0622    6.8100    0.0000 H       1  UNL1        0.0655
     51 H           2.0000   -6.6900    0.0000 H       1  UNL1        0.2923
     52 H          11.7341    6.6900    0.0000 H       1  UNL1        0.2923
     53 H           4.8059   -8.3100    0.0000 H       1  UNL1        0.2923
     54 H           8.9282    8.3100    0.0000 H       1  UNL1        0.2923
@<TRIPOS>BOND
     1     1    14    2
     2     2    13    2
     3     3    25    1
     4     3    51    1
     5     4    26    1
     6     4    52    1
     7     5    29    1
     8     5    53    1
     9     6    30    1
    10     6    54    1
    11     7    11    1
    12     7    14   am
    13     7    39    1
    14     8    12    1
    15     8    13   am
    16     8    40    1
    17     9    10    1
    18     9    11    1
    19     9    33    1
    20     9    34    1
    21    10    12    1
    22    10    31    1
    23    10    32    1
    24    11    35    1
    25    11    36    1
    26    12    37    1
    27    12    38    1
    28    13    16    1
    29    14    15    1
    30    15    19    2
    31    15    41    1
    32    16    20    2
    33    16    42    1
    34    17    19    1
    35    17    21   ar
    36    17    23   ar
    37    18    20    1
    38    18    22   ar
    39    18    24   ar
    40    19    43    1
    41    20    44    1
    42    21    25   ar
    43    21    45    1
    44    22    26   ar
    45    22    46    1
    46    23    27   ar
    47    23    47    1
    48    24    28   ar
    49    24    48    1
    50    25    29   ar
    51    26    30   ar
    52    27    29   ar
    53    27    49    1
    54    28    30   ar
    55    28    50    1
