@<TRIPOS>MOLECULE
IMPHY014562
 62 66 0 0 0
SMALL
GASTEIGER

@<TRIPOS>ATOM
      1 O           2.6158    1.5257    0.0000 O.3     1  UNL1       -0.3840
      2 O           6.6492   -0.4487    0.0000 O.3     1  UNL1       -0.4636
      3 O           4.5250   -2.3333    0.0000 O.3     1  UNL1       -0.4674
      4 O           6.0990   -1.6106    0.0000 O.2     1  UNL1       -0.2500
      5 O           8.3195   -0.9068    0.0000 O.2     1  UNL1       -0.2512
      6 N           4.2186    2.4935    0.0000 N.4     1  UNL1        0.2642
      7 N           4.2790    1.9676    0.0000 N.pl3   1  UNL1       -0.2974
      8 C           3.9700    1.0165    0.0000 C.3     1  UNL1        0.0967
      9 C           4.7790    0.4287    0.0000 C.3     1  UNL1        0.0874
     10 C           4.6861   -0.6088    0.0000 C.3     1  UNL1        0.1252
     11 C           6.1069    1.1216    0.0000 C.3     1  UNL1        0.0057
     12 C           3.7378   -1.0398    0.0000 C.3     1  UNL1        0.0077
     13 C           3.0120    0.6075    0.0000 C.3     1  UNL1        0.1196
     14 C           5.7146    2.5671    0.0000 C.3     1  UNL1       -0.0266
     15 C           4.0172    1.3216    0.0000 C.3     1  UNL1       -0.0059
     16 C           2.8951   -0.4275    0.0000 C.3     1  UNL1       -0.0116
     17 C           5.5880    1.0165    0.0000 C.ar    1  UNL1       -0.0114
     18 C           3.8569    0.1434    0.0000 C.2     1  UNL1       -0.0249
     19 C           3.5555    3.2421    0.0000 C.3     1  UNL1       -0.0387
     20 C           5.2790    1.9676    0.0000 C.ar    1  UNL1        0.0354
     21 C           5.6817   -0.7018    0.0000 C.3     1  UNL1        0.1098
     22 C           5.1034   -1.5176    0.0000 C.2     1  UNL1        0.3181
     23 C           6.3512    0.3077    0.0000 C.ar    1  UNL1       -0.0560
     24 C           2.8638    0.2609    0.0000 C.2     1  UNL1       -0.0826
     25 C           6.2645    2.3047    0.0000 C.ar    1  UNL1       -0.0404
     26 C           7.1720    0.6129    0.0000 C.ar    1  UNL1       -0.0614
     27 C           7.2163    1.6227    0.0000 C.ar    1  UNL1       -0.0600
     28 C           2.2655   -0.5404    0.0000 C.3     1  UNL1       -0.0464
     29 C           7.3521   -1.1599    0.0000 C.2     1  UNL1        0.3040
     30 C           4.9422   -3.2421    0.0000 C.3     1  UNL1        0.0817
     31 C           7.0876   -2.1243    0.0000 C.3     1  UNL1        0.0332
     32 H           6.3534    0.5527    0.0000 H       1  UNL1        0.0328
     33 H           6.6920    1.3266    0.0000 H       1  UNL1        0.0328
     34 H           3.6522   -1.8854    0.0000 H       1  UNL1        0.0360
     35 H           2.3987    0.5165    0.0000 H       1  UNL1        0.0672
     36 H           6.3230    2.6860    0.0000 H       1  UNL1        0.0816
     37 H           5.6397    3.1825    0.0000 H       1  UNL1        0.0816
     38 H           3.5360    1.7125    0.0000 H       1  UNL1        0.0865
     39 H           4.6300    1.2273    0.0000 H       1  UNL1        0.0865
     40 H           2.3000   -0.2536    0.0000 H       1  UNL1        0.0299
     41 H           2.6219   -0.9841    0.0000 H       1  UNL1        0.0299
     42 H           3.6774    2.1175    0.0000 H       1  UNL1        0.1517
     43 H           4.0196    3.6532    0.0000 H       1  UNL1        0.0779
     44 H           3.1444    3.7062    0.0000 H       1  UNL1        0.0779
     45 H           3.0914    2.8310    0.0000 H       1  UNL1        0.0779
     46 H           5.3843   -1.2458    0.0000 H       1  UNL1        0.0709
     47 H           5.6313   -0.0838    0.0000 H       1  UNL1        0.0709
     48 H           6.2303   -0.3004    0.0000 H       1  UNL1        0.0621
     49 H           2.0000    1.5977    0.0000 H       1  UNL1        0.2101
     50 H           2.3670    0.6318    0.0000 H       1  UNL1        0.0571
     51 H           6.3548    2.9181    0.0000 H       1  UNL1        0.0636
     52 H           7.6733    0.2479    0.0000 H       1  UNL1        0.0618
     53 H           7.7738    1.8938    0.0000 H       1  UNL1        0.0618
     54 H           1.7687   -0.1695    0.0000 H       1  UNL1        0.0272
     55 H           1.8946   -1.0372    0.0000 H       1  UNL1        0.0272
     56 H           2.7623   -0.9113    0.0000 H       1  UNL1        0.0272
     57 H           4.3788   -3.5008    0.0000 H       1  UNL1        0.0661
     58 H           5.2009   -3.8055    0.0000 H       1  UNL1        0.0661
     59 H           5.5057   -2.9834    0.0000 H       1  UNL1        0.0661
     60 H           6.4897   -1.9603    0.0000 H       1  UNL1        0.0342
     61 H           6.9236   -2.7222    0.0000 H       1  UNL1        0.0342
     62 H           7.6855   -2.2883    0.0000 H       1  UNL1        0.0342
@<TRIPOS>UNITY_ATOM_ATTR
6 1
charge 1
@<TRIPOS>BOND
     1     1    13    1
     2     1    49    1
     3     2    21    1
     4     2    29    1
     5     3    22    1
     6     3    30    1
     7     4    22    2
     8     5    29    2
     9     6     8    1
    10     6    14    1
    11     6    15    1
    12     6    19    1
    13     7     8    1
    14     7    20    1
    15     7    42    1
    16     8     9    1
    17     8    13    1
    18     9    10    1
    19     9    11    1
    20     9    17    1
    21    10    12    1
    22    10    21    1
    23    10    22    1
    24    11    14    1
    25    11    32    1
    26    11    33    1
    27    12    16    1
    28    12    18    1
    29    12    34    1
    30    13    16    1
    31    13    35    1
    32    14    36    1
    33    14    37    1
    34    15    18    1
    35    15    38    1
    36    15    39    1
    37    16    40    1
    38    16    41    1
    39    17    20   ar
    40    17    23   ar
    41    18    24    2
    42    19    43    1
    43    19    44    1
    44    19    45    1
    45    20    25   ar
    46    21    46    1
    47    21    47    1
    48    23    26   ar
    49    23    48    1
    50    24    28    1
    51    24    50    1
    52    25    27   ar
    53    25    51    1
    54    26    27   ar
    55    26    52    1
    56    27    53    1
    57    28    54    1
    58    28    55    1
    59    28    56    1
    60    29    31    1
    61    30    57    1
    62    30    58    1
    63    30    59    1
    64    31    60    1
    65    31    61    1
    66    31    62    1
