@<TRIPOS>MOLECULE
IMPHY009993
 29 28 0 0 0
SMALL
GASTEIGER

@<TRIPOS>ATOM
      1 O           2.5369   -1.6550    0.0000 O.3     1  UNL1       -0.3947
      2 C           3.4030    0.8450    0.0000 C.2     1  UNL1       -0.0741
      3 C           3.4030   -0.1550    0.0000 C.3     1  UNL1       -0.0087
      4 C           5.1350    0.8450    0.0000 C.3     1  UNL1       -0.0161
      5 C           4.2690    1.3450    0.0000 C.2     1  UNL1       -0.0812
      6 C           2.5369   -0.6550    0.0000 C.3     1  UNL1        0.0479
      7 C           6.0010    1.3450    0.0000 C.2     1  UNL1       -0.0815
      8 C           2.5369    1.3450    0.0000 C.3     1  UNL1       -0.0437
      9 C           6.8671    0.8450    0.0000 C.2     1  UNL1       -0.0793
     10 C           7.7331    1.3450    0.0000 C.3     1  UNL1       -0.0440
     11 C           6.8671   -0.1550    0.0000 C.3     1  UNL1       -0.0440
     12 H           3.6150   -0.7376    0.0000 H       1  UNL1        0.0332
     13 H           4.0135   -0.0473    0.0000 H       1  UNL1        0.0332
     14 H           4.7365    0.3701    0.0000 H       1  UNL1        0.0350
     15 H           5.5335    0.3701    0.0000 H       1  UNL1        0.0350
     16 H           4.2690    1.9650    0.0000 H       1  UNL1        0.0575
     17 H           2.3249   -0.0724    0.0000 H       1  UNL1        0.0560
     18 H           1.9264   -0.7627    0.0000 H       1  UNL1        0.0560
     19 H           6.0010    1.9650    0.0000 H       1  UNL1        0.0575
     20 H           2.8469    1.8819    0.0000 H       1  UNL1        0.0274
     21 H           2.0000    1.6550    0.0000 H       1  UNL1        0.0274
     22 H           2.2269    0.8081    0.0000 H       1  UNL1        0.0274
     23 H           8.0431    0.8081    0.0000 H       1  UNL1        0.0274
     24 H           8.2700    1.6550    0.0000 H       1  UNL1        0.0274
     25 H           7.4231    1.8819    0.0000 H       1  UNL1        0.0274
     26 H           6.2471   -0.1550    0.0000 H       1  UNL1        0.0274
     27 H           6.8671   -0.7750    0.0000 H       1  UNL1        0.0274
     28 H           7.4871   -0.1550    0.0000 H       1  UNL1        0.0274
     29 H           2.0000   -1.9650    0.0000 H       1  UNL1        0.2094
@<TRIPOS>BOND
     1     1     6    1
     2     1    29    1
     3     2     3    1
     4     2     5    2
     5     2     8    1
     6     3     6    1
     7     3    12    1
     8     3    13    1
     9     4     5    1
    10     4     7    1
    11     4    14    1
    12     4    15    1
    13     5    16    1
    14     6    17    1
    15     6    18    1
    16     7     9    2
    17     7    19    1
    18     8    20    1
    19     8    21    1
    20     8    22    1
    21     9    10    1
    22     9    11    1
    23    10    23    1
    24    10    24    1
    25    10    25    1
    26    11    26    1
    27    11    27    1
    28    11    28    1
