@<TRIPOS>MOLECULE
IMPHY005296
 28 29 0 0 0
SMALL
GASTEIGER

@<TRIPOS>ATOM
      1 O           6.3580   -1.7896    0.0000 O.2     1  UNL1       -0.4218
      2 O           6.3465    1.2796    0.0000 O.3     1  UNL1       -0.4942
      3 O           2.8660   -1.7550    0.0000 O.3     1  UNL1       -0.4950
      4 O           8.1282   -1.7791    0.0000 O.2     1  UNL1       -0.2451
      5 C           5.4641   -0.2550    0.0000 C.ar    1  UNL1        0.0623
      6 C           4.5981    0.2450    0.0000 C.ar    1  UNL1       -0.0328
      7 C           5.4641   -1.2550    0.0000 C.ar    1  UNL1        0.1463
      8 C           6.3580    0.2797    0.0000 C.ar    1  UNL1        0.1378
      9 C           3.7320   -0.2550    0.0000 C.ar    1  UNL1       -0.0161
     10 C           4.5981   -1.7550    0.0000 C.ar    1  UNL1        0.0232
     11 C           3.7320   -1.2550    0.0000 C.ar    1  UNL1        0.1239
     12 C           4.5981    1.2450    0.0000 C.3     1  UNL1       -0.0388
     13 C           7.2641   -0.2341    0.0000 C.ar    1  UNL1        0.0652
     14 C           7.2641   -1.2758    0.0000 C.ar    1  UNL1        0.3408
     15 C           7.2067    1.7896    0.0000 C.3     1  UNL1        0.0788
     16 C           2.0000   -1.2550    0.0000 C.3     1  UNL1        0.0788
     17 H           3.1951    0.0550    0.0000 H       1  UNL1        0.0657
     18 H           4.5981   -2.3750    0.0000 H       1  UNL1        0.0691
     19 H           5.2181    1.2450    0.0000 H       1  UNL1        0.0278
     20 H           4.5981    1.8650    0.0000 H       1  UNL1        0.0278
     21 H           3.9781    1.2450    0.0000 H       1  UNL1        0.0278
     22 H           7.7998    0.0779    0.0000 H       1  UNL1        0.0726
     23 H           7.5228    1.2563    0.0000 H       1  UNL1        0.0660
     24 H           7.7400    2.1058    0.0000 H       1  UNL1        0.0660
     25 H           6.8905    2.3229    0.0000 H       1  UNL1        0.0660
     26 H           2.3100   -0.7180    0.0000 H       1  UNL1        0.0660
     27 H           1.4631   -0.9450    0.0000 H       1  UNL1        0.0660
     28 H           1.6900   -1.7919    0.0000 H       1  UNL1        0.0660
@<TRIPOS>BOND
     1     1     7   ar
     2     1    14   ar
     3     2     8    1
     4     2    15    1
     5     3    11    1
     6     3    16    1
     7     4    14    2
     8     5     6   ar
     9     5     7   ar
    10     5     8   ar
    11     6     9   ar
    12     6    12    1
    13     7    10   ar
    14     8    13   ar
    15     9    11   ar
    16     9    17    1
    17    10    11   ar
    18    10    18    1
    19    12    19    1
    20    12    20    1
    21    12    21    1
    22    13    14   ar
    23    13    22    1
    24    15    23    1
    25    15    24    1
    26    15    25    1
    27    16    26    1
    28    16    27    1
    29    16    28    1
