@<TRIPOS>MOLECULE
IMPHY012789
 43 42 0 0 0
SMALL
GASTEIGER

@<TRIPOS>ATOM
      1 CL          9.4651    2.5000    0.0000 Cl      1  UNL1       -0.1191
      2 O           8.5991    0.0000    0.0000 O.3     1  UNL1       -0.3894
      3 O           2.5369   -0.5000    0.0000 O.3     1  UNL1       -0.3757
      4 C          10.3312    1.0000    0.0000 C.3     1  UNL1       -0.0343
      5 C          11.1972    1.5000    0.0000 C.3     1  UNL1       -0.0516
      6 C           9.4651    1.5000    0.0000 C.3     1  UNL1        0.0607
      7 C          12.0632    1.0000    0.0000 C.3     1  UNL1       -0.0527
      8 C           8.5991    1.0000    0.0000 C.3     1  UNL1        0.0822
      9 C          12.9292    1.5000    0.0000 C.3     1  UNL1       -0.0496
     10 C          13.7953    1.0000    0.0000 C.3     1  UNL1       -0.0350
     11 C           7.7331    1.5000    0.0000 C.3     1  UNL1        0.0375
     12 C          14.6613    1.5000    0.0000 C.2     1  UNL1       -0.0911
     13 C           6.8671    1.0000    0.0000 C.1     1  UNL1       -0.0858
     14 C          15.5273    1.0000    0.0000 C.2     1  UNL1       -0.1026
     15 C           6.0010    0.5000    0.0000 C.1     1  UNL1       -0.0147
     16 C           5.1350   -0.0000    0.0000 C.1     1  UNL1       -0.0119
     17 C           3.4030   -1.0000    0.0000 C.3     1  UNL1        0.1348
     18 C           4.2690   -0.5000    0.0000 C.1     1  UNL1       -0.0529
     19 C           3.4030   -2.0000    0.0000 C.2     1  UNL1       -0.0510
     20 C           2.5369   -2.5000    0.0000 C.2     1  UNL1       -0.0993
     21 H           9.9326    0.5251    0.0000 H       1  UNL1        0.0280
     22 H          10.7297    0.5251    0.0000 H       1  UNL1        0.0280
     23 H          11.5957    1.9750    0.0000 H       1  UNL1        0.0266
     24 H          10.7987    1.9750    0.0000 H       1  UNL1        0.0266
     25 H          10.0021    1.8100    0.0000 H       1  UNL1        0.0491
     26 H          11.6647    0.5251    0.0000 H       1  UNL1        0.0265
     27 H          12.4617    0.5251    0.0000 H       1  UNL1        0.0265
     28 H           8.0622    0.6900    0.0000 H       1  UNL1        0.0617
     29 H          13.3278    1.9750    0.0000 H       1  UNL1        0.0268
     30 H          12.5307    1.9750    0.0000 H       1  UNL1        0.0268
     31 H          13.3967    0.5251    0.0000 H       1  UNL1        0.0307
     32 H          14.1938    0.5251    0.0000 H       1  UNL1        0.0307
     33 H           8.1316    1.9750    0.0000 H       1  UNL1        0.0423
     34 H           7.3346    1.9750    0.0000 H       1  UNL1        0.0423
     35 H           8.0622   -0.3100    0.0000 H       1  UNL1        0.2099
     36 H          14.6613    2.1200    0.0000 H       1  UNL1        0.0566
     37 H          15.5273    0.3800    0.0000 H       1  UNL1        0.0532
     38 H          16.0643    1.3100    0.0000 H       1  UNL1        0.0532
     39 H           3.4030   -0.3800    0.0000 H       1  UNL1        0.0777
     40 H           3.9399   -2.3100    0.0000 H       1  UNL1        0.0601
     41 H           2.0000   -0.8100    0.0000 H       1  UNL1        0.2114
     42 H           2.0000   -2.1900    0.0000 H       1  UNL1        0.0533
     43 H           2.5369   -3.1200    0.0000 H       1  UNL1        0.0533
@<TRIPOS>BOND
     1     1     6    1
     2     2     8    1
     3     2    35    1
     4     3    17    1
     5     3    41    1
     6     4     5    1
     7     4     6    1
     8     4    21    1
     9     4    22    1
    10     5     7    1
    11     5    23    1
    12     5    24    1
    13     6     8    1
    14     6    25    1
    15     7     9    1
    16     7    26    1
    17     7    27    1
    18     8    11    1
    19     8    28    1
    20     9    10    1
    21     9    29    1
    22     9    30    1
    23    10    12    1
    24    10    31    1
    25    10    32    1
    26    11    13    1
    27    11    33    1
    28    11    34    1
    29    12    14    2
    30    12    36    1
    31    13    15    3
    32    14    37    1
    33    14    38    1
    34    15    16    1
    35    16    18    3
    36    17    18    1
    37    17    19    1
    38    17    39    1
    39    19    20    2
    40    19    40    1
    41    20    42    1
    42    20    43    1
