@<TRIPOS>MOLECULE
IMPHY009061
 55 57 0 0 0
SMALL
GASTEIGER

@<TRIPOS>ATOM
      1 O           2.9468   -0.4135    0.0000 O.3     1  UNL1       -0.4605
      2 O           7.3606   -2.4437    0.0000 O.3     1  UNL1       -0.3947
      3 O           2.0000    0.8907    0.0000 O.2     1  UNL1       -0.2453
      4 O          10.4805    0.1408    0.0000 O.3     1  UNL1       -0.3907
      5 O          10.9504    2.7445    0.0000 O.3     1  UNL1       -0.3910
      6 C           5.5708    0.6014    0.0000 C.3     1  UNL1       -0.0220
      7 C           6.4808    0.0945    0.0000 C.3     1  UNL1       -0.0231
      8 C           4.7047    0.1014    0.0000 C.3     1  UNL1        0.0396
      9 C           6.4888   -0.9471    0.0000 C.3     1  UNL1       -0.0121
     10 C           4.6887   -0.9401    0.0000 C.3     1  UNL1       -0.0394
     11 C           5.5867   -1.4679    0.0000 C.3     1  UNL1       -0.0467
     12 C           5.5708    1.6014    0.0000 C.3     1  UNL1       -0.0453
     13 C           3.8387    0.6014    0.0000 C.2     1  UNL1        0.0423
     14 C           7.4807    0.1061    0.0000 C.3     1  UNL1       -0.0433
     15 C           4.0376   -0.6356    0.0000 C.3     1  UNL1        0.1028
     16 C           6.9707    0.9663    0.0000 C.3     1  UNL1       -0.0589
     17 C           4.7047    2.1014    0.0000 C.3     1  UNL1       -0.0337
     18 C           7.3567   -1.4437    0.0000 C.3     1  UNL1        0.0475
     19 C           3.8387    1.6014    0.0000 C.2     1  UNL1       -0.0734
     20 C           2.8669    0.3922    0.0000 C.2     1  UNL1        0.3355
     21 C           7.9706    0.9778    0.0000 C.3     1  UNL1       -0.0290
     22 C           8.9706    0.9894    0.0000 C.2     1  UNL1       -0.0463
     23 C           9.4806    0.1292    0.0000 C.3     1  UNL1        0.0654
     24 C           9.4605    1.8612    0.0000 C.2     1  UNL1       -0.0576
     25 C          10.4605    1.8727    0.0000 C.3     1  UNL1        0.0627
     26 H           6.3036    1.0320    0.0000 H       1  UNL1        0.0316
     27 H           7.0239   -0.6340    0.0000 H       1  UNL1        0.0328
     28 H           4.0795   -0.8246    0.0000 H       1  UNL1        0.0275
     29 H           4.4706   -1.5205    0.0000 H       1  UNL1        0.0275
     30 H           5.1858   -1.9408    0.0000 H       1  UNL1        0.0269
     31 H           5.9840   -1.9438    0.0000 H       1  UNL1        0.0269
     32 H           6.1813    1.4937    0.0000 H       1  UNL1        0.0271
     33 H           5.7828    2.1840    0.0000 H       1  UNL1        0.0271
     34 H           7.3801   -0.5057    0.0000 H       1  UNL1        0.0274
     35 H           8.0657   -0.0992    0.0000 H       1  UNL1        0.0274
     36 H           3.8082   -1.2116    0.0000 H       1  UNL1        0.0706
     37 H           4.5638   -0.9636    0.0000 H       1  UNL1        0.0706
     38 H           7.5112    0.6625    0.0000 H       1  UNL1        0.0235
     39 H           7.2745    1.5068    0.0000 H       1  UNL1        0.0235
     40 H           6.4302    1.2701    0.0000 H       1  UNL1        0.0235
     41 H           5.1033    2.5763    0.0000 H       1  UNL1        0.0308
     42 H           4.3062    2.5763    0.0000 H       1  UNL1        0.0308
     43 H           7.9677   -1.5490    0.0000 H       1  UNL1        0.0560
     44 H           7.5665   -0.8603    0.0000 H       1  UNL1        0.0560
     45 H           3.3018    1.9114    0.0000 H       1  UNL1        0.0577
     46 H           8.0712    1.5896    0.0000 H       1  UNL1        0.0311
     47 H           7.3856    1.1832    0.0000 H       1  UNL1        0.0311
     48 H           7.8987   -2.7516    0.0000 H       1  UNL1        0.2094
     49 H           8.9004   -0.0895    0.0000 H       1  UNL1        0.0604
     50 H           9.5953   -0.4801    0.0000 H       1  UNL1        0.0604
     51 H           9.1443    2.3945    0.0000 H       1  UNL1        0.0595
     52 H          10.3599    1.2609    0.0000 H       1  UNL1        0.0601
     53 H          11.0455    1.6674    0.0000 H       1  UNL1        0.0601
     54 H          10.7967   -0.3925    0.0000 H       1  UNL1        0.2098
     55 H          11.5704    2.7516    0.0000 H       1  UNL1        0.2098
@<TRIPOS>BOND
     1     1    15    1
     2     1    20    1
     3     2    18    1
     4     2    48    1
     5     3    20    2
     6     4    23    1
     7     4    54    1
     8     5    25    1
     9     5    55    1
    10     6     7    1
    11     6     8    1
    12     6    12    1
    13     6    26    1
    14     7     9    1
    15     7    14    1
    16     7    16    1
    17     8    10    1
    18     8    13    1
    19     8    15    1
    20     9    11    1
    21     9    18    1
    22     9    27    1
    23    10    11    1
    24    10    28    1
    25    10    29    1
    26    11    30    1
    27    11    31    1
    28    12    17    1
    29    12    32    1
    30    12    33    1
    31    13    19    2
    32    13    20    1
    33    14    21    1
    34    14    34    1
    35    14    35    1
    36    15    36    1
    37    15    37    1
    38    16    38    1
    39    16    39    1
    40    16    40    1
    41    17    19    1
    42    17    41    1
    43    17    42    1
    44    18    43    1
    45    18    44    1
    46    19    45    1
    47    21    22    1
    48    21    46    1
    49    21    47    1
    50    22    23    1
    51    22    24    2
    52    23    49    1
    53    23    50    1
    54    24    25    1
    55    24    51    1
    56    25    52    1
    57    25    53    1
