@<TRIPOS>MOLECULE
IMPHY013056
 55 54 0 0 0
SMALL
GASTEIGER

@<TRIPOS>ATOM
      1 O           2.8660    1.0000    0.0000 O.3     1  UNL1       -0.4679
      2 O           3.7320   -0.5000    0.0000 O.2     1  UNL1       -0.2509
      3 C           9.7942    1.0000    0.0000 C.3     1  UNL1       -0.0531
      4 C           8.9282    0.5000    0.0000 C.3     1  UNL1       -0.0531
      5 C          10.6603    0.5000    0.0000 C.3     1  UNL1       -0.0531
      6 C           8.0622    1.0000    0.0000 C.3     1  UNL1       -0.0531
      7 C          11.5263    1.0000    0.0000 C.3     1  UNL1       -0.0530
      8 C           7.1962    0.5000    0.0000 C.3     1  UNL1       -0.0530
      9 C          12.3923    0.5000    0.0000 C.3     1  UNL1       -0.0528
     10 C           6.3301    1.0000    0.0000 C.3     1  UNL1       -0.0526
     11 C          13.2583    1.0000    0.0000 C.3     1  UNL1       -0.0496
     12 C           5.4641    0.5000    0.0000 C.3     1  UNL1       -0.0430
     13 C          14.1244    0.5000    0.0000 C.3     1  UNL1       -0.0345
     14 C           4.5981    1.0000    0.0000 C.3     1  UNL1        0.0449
     15 C          14.9904    1.0000    0.0000 C.2     1  UNL1       -0.0840
     16 C           3.7320    0.5000    0.0000 C.2     1  UNL1        0.3068
     17 C          15.8564    0.5000    0.0000 C.2     1  UNL1       -0.0660
     18 C          15.8564   -0.5000    0.0000 C.2     1  UNL1       -0.0662
     19 C           2.0000    0.5000    0.0000 C.3     1  UNL1        0.0817
     20 C          16.7224   -1.0000    0.0000 C.2     1  UNL1       -0.0871
     21 C          17.5885   -0.5000    0.0000 C.3     1  UNL1       -0.0465
     22 H          10.1928    1.4750    0.0000 H       1  UNL1        0.0265
     23 H           9.3957    1.4750    0.0000 H       1  UNL1        0.0265
     24 H           8.5297    0.0251    0.0000 H       1  UNL1        0.0265
     25 H           9.3267    0.0251    0.0000 H       1  UNL1        0.0265
     26 H          10.2617    0.0251    0.0000 H       1  UNL1        0.0265
     27 H          11.0588    0.0251    0.0000 H       1  UNL1        0.0265
     28 H           8.4607    1.4750    0.0000 H       1  UNL1        0.0265
     29 H           7.6636    1.4750    0.0000 H       1  UNL1        0.0265
     30 H          11.9248    1.4750    0.0000 H       1  UNL1        0.0265
     31 H          11.1278    1.4750    0.0000 H       1  UNL1        0.0265
     32 H           6.7976    0.0251    0.0000 H       1  UNL1        0.0265
     33 H           7.5947    0.0251    0.0000 H       1  UNL1        0.0265
     34 H          11.9938    0.0251    0.0000 H       1  UNL1        0.0265
     35 H          12.7908    0.0251    0.0000 H       1  UNL1        0.0265
     36 H           6.7287    1.4750    0.0000 H       1  UNL1        0.0265
     37 H           5.9316    1.4750    0.0000 H       1  UNL1        0.0265
     38 H          13.6569    1.4750    0.0000 H       1  UNL1        0.0268
     39 H          12.8598    1.4750    0.0000 H       1  UNL1        0.0268
     40 H           5.0656    0.0251    0.0000 H       1  UNL1        0.0270
     41 H           5.8626    0.0251    0.0000 H       1  UNL1        0.0270
     42 H          13.7258    0.0251    0.0000 H       1  UNL1        0.0307
     43 H          14.5229    0.0251    0.0000 H       1  UNL1        0.0307
     44 H           4.9966    1.4750    0.0000 H       1  UNL1        0.0377
     45 H           4.1996    1.4750    0.0000 H       1  UNL1        0.0377
     46 H          14.9904    1.6200    0.0000 H       1  UNL1        0.0572
     47 H          16.3933    0.8100    0.0000 H       1  UNL1        0.0614
     48 H          15.3195   -0.8100    0.0000 H       1  UNL1        0.0614
     49 H           1.6900    1.0369    0.0000 H       1  UNL1        0.0661
     50 H           1.4631    0.1900    0.0000 H       1  UNL1        0.0661
     51 H           2.3100   -0.0369    0.0000 H       1  UNL1        0.0661
     52 H          16.7224   -1.6200    0.0000 H       1  UNL1        0.0569
     53 H          17.8985   -1.0369    0.0000 H       1  UNL1        0.0272
     54 H          18.1254   -0.1900    0.0000 H       1  UNL1        0.0272
     55 H          17.2785    0.0369    0.0000 H       1  UNL1        0.0272
@<TRIPOS>BOND
     1     1    16    1
     2     1    19    1
     3     2    16    2
     4     3     4    1
     5     3     5    1
     6     3    22    1
     7     3    23    1
     8     4     6    1
     9     4    24    1
    10     4    25    1
    11     5     7    1
    12     5    26    1
    13     5    27    1
    14     6     8    1
    15     6    28    1
    16     6    29    1
    17     7     9    1
    18     7    30    1
    19     7    31    1
    20     8    10    1
    21     8    32    1
    22     8    33    1
    23     9    11    1
    24     9    34    1
    25     9    35    1
    26    10    12    1
    27    10    36    1
    28    10    37    1
    29    11    13    1
    30    11    38    1
    31    11    39    1
    32    12    14    1
    33    12    40    1
    34    12    41    1
    35    13    15    1
    36    13    42    1
    37    13    43    1
    38    14    16    1
    39    14    44    1
    40    14    45    1
    41    15    17    2
    42    15    46    1
    43    17    18    1
    44    17    47    1
    45    18    20    2
    46    18    48    1
    47    19    49    1
    48    19    50    1
    49    19    51    1
    50    20    21    1
    51    20    52    1
    52    21    53    1
    53    21    54    1
    54    21    55    1
