@<TRIPOS>MOLECULE
IMPHY017867
 34 34 0 0 0
SMALL
GASTEIGER

@<TRIPOS>ATOM
      1 O           3.7320   -1.2500    0.0000 O.3     1  UNL1       -0.4256
      2 O           2.0000   -1.2500    0.0000 O.2     1  UNL1       -0.2501
      3 C           2.8660   -2.7500    0.0000 C.3     1  UNL1        0.0538
      4 C           2.0000   -3.2500    0.0000 C.3     1  UNL1       -0.0432
      5 C           3.7320   -3.2500    0.0000 C.3     1  UNL1       -0.0523
      6 C           2.8660   -1.7500    0.0000 C.2     1  UNL1        0.3152
      7 C           2.0000   -4.2500    0.0000 C.3     1  UNL1       -0.0645
      8 C           3.7320   -0.2500    0.0000 C.ar    1  UNL1        0.1317
      9 C           3.7320    1.7500    0.0000 C.ar    1  UNL1       -0.0251
     10 C           4.5981    0.2500    0.0000 C.ar    1  UNL1       -0.0187
     11 C           2.8660    0.2500    0.0000 C.ar    1  UNL1       -0.0187
     12 C           4.5981    1.2500    0.0000 C.ar    1  UNL1       -0.0511
     13 C           2.8660    1.2500    0.0000 C.ar    1  UNL1       -0.0511
     14 C           3.7320    2.7500    0.0000 C.2     1  UNL1       -0.0588
     15 C           4.5981    3.2500    0.0000 C.2     1  UNL1       -0.0866
     16 C           4.5981    4.2500    0.0000 C.3     1  UNL1       -0.0465
     17 H           2.8660   -3.3700    0.0000 H       1  UNL1        0.0411
     18 H           1.7880   -2.6674    0.0000 H       1  UNL1        0.0270
     19 H           1.3894   -3.3577    0.0000 H       1  UNL1        0.0270
     20 H           3.4220   -3.7869    0.0000 H       1  UNL1        0.0238
     21 H           4.2690   -3.5600    0.0000 H       1  UNL1        0.0238
     22 H           4.0420   -2.7131    0.0000 H       1  UNL1        0.0238
     23 H           1.3800   -4.2500    0.0000 H       1  UNL1        0.0230
     24 H           2.0000   -4.8700    0.0000 H       1  UNL1        0.0230
     25 H           2.6200   -4.2500    0.0000 H       1  UNL1        0.0230
     26 H           5.1350   -0.0600    0.0000 H       1  UNL1        0.0654
     27 H           2.3291   -0.0600    0.0000 H       1  UNL1        0.0654
     28 H           5.1350    1.5600    0.0000 H       1  UNL1        0.0625
     29 H           2.3291    1.5600    0.0000 H       1  UNL1        0.0625
     30 H           3.1951    3.0600    0.0000 H       1  UNL1        0.0620
     31 H           5.1350    2.9400    0.0000 H       1  UNL1        0.0569
     32 H           5.2181    4.2500    0.0000 H       1  UNL1        0.0272
     33 H           4.5981    4.8700    0.0000 H       1  UNL1        0.0272
     34 H           3.9781    4.2500    0.0000 H       1  UNL1        0.0272
@<TRIPOS>BOND
     1     1     6    1
     2     1     8    1
     3     2     6    2
     4     3     4    1
     5     3     5    1
     6     3     6    1
     7     3    17    1
     8     4     7    1
     9     4    18    1
    10     4    19    1
    11     5    20    1
    12     5    21    1
    13     5    22    1
    14     7    23    1
    15     7    24    1
    16     7    25    1
    17     8    10   ar
    18     8    11   ar
    19     9    12   ar
    20     9    13   ar
    21     9    14    1
    22    10    12   ar
    23    10    26    1
    24    11    13   ar
    25    11    27    1
    26    12    28    1
    27    13    29    1
    28    14    15    2
    29    14    30    1
    30    15    16    1
    31    15    31    1
    32    16    32    1
    33    16    33    1
    34    16    34    1
