@<TRIPOS>MOLECULE
IMPHY007011
 51 55 0 0 0
SMALL
GASTEIGER

@<TRIPOS>ATOM
      1 O           6.5824   -1.6303    0.0000 O.3     1  UNL1       -0.4672
      2 O           4.8506   -0.9002    0.0000 O.2     1  UNL1       -0.2497
      3 N           5.6708    1.7815    0.0000 N.3     1  UNL1       -0.2971
      4 N           5.0349   -1.3938    0.0000 N.ar    1  UNL1       -0.3568
      5 C           6.2943    0.9997    0.0000 C.3     1  UNL1        0.0344
      6 C           6.0718    0.0248    0.0000 C.3     1  UNL1        0.1235
      7 C           7.8221   -0.3961    0.0000 C.3     1  UNL1       -0.0265
      8 C           7.2848    1.3220    0.0000 C.3     1  UNL1       -0.0240
      9 C           6.8244   -0.6954    0.0000 C.3     1  UNL1       -0.0262
     10 C           8.0538    0.6195    0.0000 C.3     1  UNL1       -0.0447
     11 C           7.3751    1.3137    0.0000 C.3     1  UNL1        0.0021
     12 C           5.1708   -0.4091    0.0000 C.ar    1  UNL1        0.0388
     13 C           4.6708    1.7815    0.0000 C.3     1  UNL1        0.0033
     14 C           7.4961    2.2995    0.0000 C.3     1  UNL1       -0.0516
     15 C           5.8493   -0.9502    0.0000 C.2     1  UNL1        0.3205
     16 C           4.2699    0.0248    0.0000 C.ar    1  UNL1       -0.0168
     17 C           4.0474    0.9997    0.0000 C.3     1  UNL1       -0.0126
     18 C           3.5848   -0.6955    0.0000 C.ar    1  UNL1        0.0032
     19 C           8.4482    2.6053    0.0000 C.3     1  UNL1       -0.0650
     20 C           4.0566   -1.5705    0.0000 C.ar    1  UNL1        0.0470
     21 C           2.5503   -0.6495    0.0000 C.ar    1  UNL1       -0.0523
     22 C           3.5267   -2.4601    0.0000 C.ar    1  UNL1       -0.0378
     23 C           6.3598   -2.6053    0.0000 C.3     1  UNL1        0.0817
     24 C           2.0000   -1.5266    0.0000 C.ar    1  UNL1       -0.0611
     25 C           2.4915   -2.4380    0.0000 C.ar    1  UNL1       -0.0598
     26 H           6.4835    1.8284    0.0000 H       1  UNL1        0.0480
     27 H           8.0371   -1.2184    0.0000 H       1  UNL1        0.0314
     28 H           6.8247    1.7376    0.0000 H       1  UNL1        0.0316
     29 H           6.3254   -1.0634    0.0000 H       1  UNL1        0.0283
     30 H           7.1015   -1.2500    0.0000 H       1  UNL1        0.0283
     31 H           8.6258    0.3801    0.0000 H       1  UNL1        0.0271
     32 H           8.3875    1.1420    0.0000 H       1  UNL1        0.0271
     33 H           7.9930    1.3640    0.0000 H       1  UNL1        0.0429
     34 H           7.4329    1.9310    0.0000 H       1  UNL1        0.0429
     35 H           4.8088    2.3860    0.0000 H       1  UNL1        0.0430
     36 H           4.1123    2.0505    0.0000 H       1  UNL1        0.0430
     37 H           7.4119    2.9137    0.0000 H       1  UNL1        0.0266
     38 H           6.8765    2.3232    0.0000 H       1  UNL1        0.0266
     39 H           3.6608    1.4844    0.0000 H       1  UNL1        0.0326
     40 H           3.4888    0.7307    0.0000 H       1  UNL1        0.0326
     41 H           5.4822   -1.8231    0.0000 H       1  UNL1        0.1656
     42 H           8.6378    2.0149    0.0000 H       1  UNL1        0.0230
     43 H           9.0385    2.7948    0.0000 H       1  UNL1        0.0230
     44 H           8.2586    3.1956    0.0000 H       1  UNL1        0.0230
     45 H           2.2624   -0.1004    0.0000 H       1  UNL1        0.0624
     46 H           3.8272   -3.0024    0.0000 H       1  UNL1        0.0638
     47 H           5.7554   -2.4673    0.0000 H       1  UNL1        0.0661
     48 H           6.2219   -3.2097    0.0000 H       1  UNL1        0.0661
     49 H           6.9643   -2.7432    0.0000 H       1  UNL1        0.0661
     50 H           1.3803   -1.5062    0.0000 H       1  UNL1        0.0618
     51 H           2.1680   -2.9670    0.0000 H       1  UNL1        0.0618
@<TRIPOS>BOND
     1     1    15    1
     2     1    23    1
     3     2    15    2
     4     3     5    1
     5     3    11    1
     6     3    13    1
     7     4    12   ar
     8     4    20   ar
     9     4    41    1
    10     5     6    1
    11     5     8    1
    12     5    26    1
    13     6     9    1
    14     6    12    1
    15     6    15    1
    16     7     9    1
    17     7    10    1
    18     7    11    1
    19     7    27    1
    20     8    10    1
    21     8    14    1
    22     8    28    1
    23     9    29    1
    24     9    30    1
    25    10    31    1
    26    10    32    1
    27    11    33    1
    28    11    34    1
    29    12    16   ar
    30    13    17    1
    31    13    35    1
    32    13    36    1
    33    14    19    1
    34    14    37    1
    35    14    38    1
    36    16    17    1
    37    16    18   ar
    38    17    39    1
    39    17    40    1
    40    18    20   ar
    41    18    21   ar
    42    19    42    1
    43    19    43    1
    44    19    44    1
    45    20    22   ar
    46    21    24   ar
    47    21    45    1
    48    22    25   ar
    49    22    46    1
    50    23    47    1
    51    23    48    1
    52    23    49    1
    53    24    25   ar
    54    24    50    1
    55    25    51    1
