@<TRIPOS>MOLECULE
IMPHY009293
 49 51 0 0 0
SMALL
GASTEIGER

@<TRIPOS>ATOM
      1 O           9.8222   -1.2847    0.0000 O.3     1  UNL1       -0.4814
      2 O           8.0622    1.7500    0.0000 O.3     1  UNL1       -0.4936
      3 O           6.3301   -1.2500    0.0000 O.3     1  UNL1       -0.4942
      4 O           6.3301    1.7500    0.0000 O.2     1  UNL1       -0.2869
      5 O           4.5981    1.7500    0.0000 O.2     1  UNL1       -0.5061
      6 C          10.7282   -0.7708    0.0000 C.3     1  UNL1        0.1235
      7 C           8.9282    0.2500    0.0000 C.ar    1  UNL1        0.0591
      8 C           8.9282   -0.7500    0.0000 C.ar    1  UNL1        0.1359
      9 C          10.7282    0.2708    0.0000 C.2     1  UNL1       -0.0408
     10 C          11.7282   -0.7747    0.0000 C.3     1  UNL1       -0.0215
     11 C          11.2249   -1.6388    0.0000 C.3     1  UNL1       -0.0215
     12 C           9.8222    0.7847    0.0000 C.2     1  UNL1       -0.0478
     13 C           8.0622    0.7500    0.0000 C.ar    1  UNL1        0.1450
     14 C           7.1962    0.2500    0.0000 C.ar    1  UNL1        0.1057
     15 C           8.0622   -1.2500    0.0000 C.ar    1  UNL1        0.0233
     16 C           7.1962   -0.7500    0.0000 C.ar    1  UNL1        0.1379
     17 C           6.3301    0.7500    0.0000 C.2     1  UNL1        0.1966
     18 C           5.4641    0.2500    0.0000 C.2     1  UNL1        0.0280
     19 C           8.9282    2.2500    0.0000 C.3     1  UNL1        0.0788
     20 C           4.5981    0.7500    0.0000 C.2     1  UNL1        0.1276
     21 C           6.3301   -2.2500    0.0000 C.3     1  UNL1        0.0788
     22 C           3.7320    0.2500    0.0000 C.ar    1  UNL1        0.0165
     23 C           2.8660    0.7500    0.0000 C.ar    1  UNL1       -0.0511
     24 C           3.7320   -0.7500    0.0000 C.ar    1  UNL1       -0.0511
     25 C           2.0000    0.2500    0.0000 C.ar    1  UNL1       -0.0611
     26 C           2.8660   -1.2500    0.0000 C.ar    1  UNL1       -0.0611
     27 C           2.0000   -0.7500    0.0000 C.ar    1  UNL1       -0.0617
     28 H          11.2639    0.5829    0.0000 H       1  UNL1        0.0611
     29 H          11.7258   -1.3947    0.0000 H       1  UNL1        0.0271
     30 H          10.6867   -1.9467    0.0000 H       1  UNL1        0.0271
     31 H          11.5328   -2.1769    0.0000 H       1  UNL1        0.0271
     32 H          11.7630   -1.3308    0.0000 H       1  UNL1        0.0271
     33 H          12.3482   -0.7771    0.0000 H       1  UNL1        0.0271
     34 H          11.7306   -0.1547    0.0000 H       1  UNL1        0.0271
     35 H           9.8150    1.4046    0.0000 H       1  UNL1        0.0624
     36 H           8.0622   -1.8700    0.0000 H       1  UNL1        0.0691
     37 H           5.4641   -0.3700    0.0000 H       1  UNL1        0.0693
     38 H           9.2382    1.7131    0.0000 H       1  UNL1        0.0660
     39 H           9.4651    2.5600    0.0000 H       1  UNL1        0.0660
     40 H           8.6182    2.7869    0.0000 H       1  UNL1        0.0660
     41 H           5.7101   -2.2500    0.0000 H       1  UNL1        0.0660
     42 H           6.3301   -2.8700    0.0000 H       1  UNL1        0.0660
     43 H           6.9501   -2.2500    0.0000 H       1  UNL1        0.0660
     44 H           2.8660    1.3700    0.0000 H       1  UNL1        0.0625
     45 H           4.2690   -1.0600    0.0000 H       1  UNL1        0.0625
     46 H           1.4631    0.5600    0.0000 H       1  UNL1        0.0618
     47 H           2.8660   -1.8700    0.0000 H       1  UNL1        0.0618
     48 H           4.0611    2.0600    0.0000 H       1  UNL1        0.2922
     49 H           1.4631   -1.0600    0.0000 H       1  UNL1        0.0618
@<TRIPOS>BOND
     1     1     6    1
     2     1     8    1
     3     2    13    1
     4     2    19    1
     5     3    16    1
     6     3    21    1
     7     4    17    2
     8     5    20    1
     9     5    48    1
    10     6     9    1
    11     6    10    1
    12     6    11    1
    13     7     8   ar
    14     7    12    1
    15     7    13   ar
    16     8    15   ar
    17     9    12    2
    18     9    28    1
    19    10    29    1
    20    10    33    1
    21    10    34    1
    22    11    30    1
    23    11    31    1
    24    11    32    1
    25    12    35    1
    26    13    14   ar
    27    14    16   ar
    28    14    17    1
    29    15    16   ar
    30    15    36    1
    31    17    18    1
    32    18    20    2
    33    18    37    1
    34    19    38    1
    35    19    39    1
    36    19    40    1
    37    20    22    1
    38    21    41    1
    39    21    42    1
    40    21    43    1
    41    22    23   ar
    42    22    24   ar
    43    23    25   ar
    44    23    44    1
    45    24    26   ar
    46    24    45    1
    47    25    27   ar
    48    25    46    1
    49    26    27   ar
    50    26    47    1
    51    27    49    1
