@<TRIPOS>MOLECULE
IMPHY009764
 27 29 0 0 0
SMALL
GASTEIGER

@<TRIPOS>ATOM
      1 O           2.3596   -1.8486    0.0000 O.3     1  UNL1       -0.3680
      2 C           4.0501   -0.1000    0.0000 C.3     1  UNL1       -0.0040
      3 C           5.4490   -0.0911    0.0000 C.3     1  UNL1       -0.0265
      4 C           2.8290   -0.9656    0.0000 C.3     1  UNL1        0.0961
      5 C           4.3089    0.8660    0.0000 C.3     1  UNL1       -0.0351
      6 C           3.5723    1.8486    0.0000 C.3     1  UNL1       -0.0437
      7 C           2.0000   -0.4064    0.0000 C.3     1  UNL1       -0.0210
      8 C           2.2756    0.5548    0.0000 C.3     1  UNL1       -0.0470
      9 C           3.3590   -1.8137    0.0000 C.3     1  UNL1        0.0778
     10 C           6.3150    0.4089    0.0000 C.3     1  UNL1       -0.0592
     11 C           5.9490   -0.9572    0.0000 C.3     1  UNL1       -0.0592
     12 H           4.4312    0.3891    0.0000 H       1  UNL1        0.0335
     13 H           4.7592    1.2921    0.0000 H       1  UNL1        0.0306
     14 H           3.8901    2.3809    0.0000 H       1  UNL1        0.0272
     15 H           2.9591    1.9405    0.0000 H       1  UNL1        0.0272
     16 H           1.4252   -0.1742    0.0000 H       1  UNL1        0.0294
     17 H           1.7089   -0.9539    0.0000 H       1  UNL1        0.0294
     18 H           2.2706    1.1748    0.0000 H       1  UNL1        0.0269
     19 H           1.6613    0.6386    0.0000 H       1  UNL1        0.0269
     20 H           3.4879   -2.4201    0.0000 H       1  UNL1        0.0589
     21 H           3.9338   -1.5814    0.0000 H       1  UNL1        0.0589
     22 H           6.6250   -0.1281    0.0000 H       1  UNL1        0.0235
     23 H           6.8520    0.7189    0.0000 H       1  UNL1        0.0235
     24 H           6.0050    0.9458    0.0000 H       1  UNL1        0.0235
     25 H           5.4121   -1.2672    0.0000 H       1  UNL1        0.0235
     26 H           6.2590   -1.4941    0.0000 H       1  UNL1        0.0235
     27 H           6.4859   -0.6472    0.0000 H       1  UNL1        0.0235
@<TRIPOS>BOND
     1     1     4    1
     2     1     9    1
     3     2     3    1
     4     2     4    1
     5     2     6    1
     6     2    12    1
     7     3     5    1
     8     3    10    1
     9     3    11    1
    10     4     7    1
    11     4     9    1
    12     5     6    1
    13     5     8    1
    14     5    13    1
    15     6    14    1
    16     6    15    1
    17     7     8    1
    18     7    16    1
    19     7    17    1
    20     8    18    1
    21     8    19    1
    22     9    20    1
    23     9    21    1
    24    10    22    1
    25    10    23    1
    26    10    24    1
    27    11    25    1
    28    11    26    1
    29    11    27    1
