@<TRIPOS>MOLECULE
IMPHY015465
 44 46 0 0 0
SMALL
GASTEIGER

@<TRIPOS>ATOM
      1 O           6.0682    0.7500    0.0000 O.3     1  UNL1       -0.4830
      2 O           6.0682    3.7500    0.0000 O.2     1  UNL1       -0.2918
      3 O          10.3984   -0.7500    0.0000 O.3     1  UNL1       -0.5065
      4 O           2.5381    0.7258    0.0000 O.3     1  UNL1       -0.5066
      5 C           6.9343    1.2500    0.0000 C.3     1  UNL1        0.1322
      6 C           6.9343    2.2500    0.0000 C.3     1  UNL1        0.0519
      7 C           7.8003    0.7500    0.0000 C.ar    1  UNL1       -0.0064
      8 C           6.0682    2.7500    0.0000 C.2     1  UNL1        0.1705
      9 C           5.2022    2.2500    0.0000 C.ar    1  UNL1        0.0594
     10 C           5.2022    1.2500    0.0000 C.ar    1  UNL1        0.1353
     11 C           7.8003   -0.2500    0.0000 C.ar    1  UNL1       -0.0481
     12 C           8.6663   -0.7500    0.0000 C.ar    1  UNL1       -0.0019
     13 C           8.6663    1.2500    0.0000 C.ar    1  UNL1       -0.0516
     14 C           8.6663   -1.7500    0.0000 C.3     1  UNL1       -0.0058
     15 C           9.5323   -0.2500    0.0000 C.ar    1  UNL1        0.1203
     16 C           9.5323    0.7500    0.0000 C.ar    1  UNL1       -0.0195
     17 C           4.3083    2.7847    0.0000 C.ar    1  UNL1       -0.0443
     18 C           4.3083    0.7153    0.0000 C.ar    1  UNL1        0.0223
     19 C           3.4022    1.2292    0.0000 C.ar    1  UNL1        0.1204
     20 C           3.4022    2.2708    0.0000 C.ar    1  UNL1       -0.0193
     21 C           7.8003   -2.2500    0.0000 C.2     1  UNL1       -0.0809
     22 C           7.8003   -3.2500    0.0000 C.2     1  UNL1       -0.0793
     23 C           6.9343   -3.7500    0.0000 C.3     1  UNL1       -0.0440
     24 C           8.6663   -3.7500    0.0000 C.3     1  UNL1       -0.0440
     25 H           6.9343    0.6300    0.0000 H       1  UNL1        0.0789
     26 H           7.5449    2.1423    0.0000 H       1  UNL1        0.0385
     27 H           7.1463    2.8326    0.0000 H       1  UNL1        0.0385
     28 H           7.2634   -0.5600    0.0000 H       1  UNL1        0.0625
     29 H           8.6663    1.8700    0.0000 H       1  UNL1        0.0623
     30 H           8.8784   -2.3326    0.0000 H       1  UNL1        0.0357
     31 H           9.2769   -1.6423    0.0000 H       1  UNL1        0.0357
     32 H          10.0693    1.0600    0.0000 H       1  UNL1        0.0654
     33 H           4.3154    3.4046    0.0000 H       1  UNL1        0.0627
     34 H           4.3154    0.0954    0.0000 H       1  UNL1        0.0691
     35 H           2.8665    2.5829    0.0000 H       1  UNL1        0.0654
     36 H           7.2634   -1.9400    0.0000 H       1  UNL1        0.0575
     37 H          10.9353   -0.4400    0.0000 H       1  UNL1        0.2921
     38 H           6.6243   -3.2131    0.0000 H       1  UNL1        0.0274
     39 H           6.3973   -4.0600    0.0000 H       1  UNL1        0.0274
     40 H           7.2443   -4.2869    0.0000 H       1  UNL1        0.0274
     41 H           8.3563   -4.2869    0.0000 H       1  UNL1        0.0274
     42 H           9.2033   -4.0600    0.0000 H       1  UNL1        0.0274
     43 H           8.9763   -3.2131    0.0000 H       1  UNL1        0.0274
     44 H           2.0000    1.0338    0.0000 H       1  UNL1        0.2921
@<TRIPOS>BOND
     1     1     5    1
     2     1    10    1
     3     2     8    2
     4     3    15    1
     5     3    37    1
     6     4    19    1
     7     4    44    1
     8     5     6    1
     9     5     7    1
    10     5    25    1
    11     6     8    1
    12     6    26    1
    13     6    27    1
    14     7    11   ar
    15     7    13   ar
    16     8     9    1
    17     9    10   ar
    18     9    17   ar
    19    10    18   ar
    20    11    12   ar
    21    11    28    1
    22    12    14    1
    23    12    15   ar
    24    13    16   ar
    25    13    29    1
    26    14    21    1
    27    14    30    1
    28    14    31    1
    29    15    16   ar
    30    16    32    1
    31    17    20   ar
    32    17    33    1
    33    18    19   ar
    34    18    34    1
    35    19    20   ar
    36    20    35    1
    37    21    22    2
    38    21    36    1
    39    22    23    1
    40    22    24    1
    41    23    38    1
    42    23    39    1
    43    23    40    1
    44    24    41    1
    45    24    42    1
    46    24    43    1
