@<TRIPOS>MOLECULE
IMPHY007444
 53 56 0 0 0
SMALL
GASTEIGER

@<TRIPOS>ATOM
      1 O           2.5357   -2.5030    0.0000 O.3     1  UNL1       -0.3915
      2 O           8.5179    2.5489    0.0000 O.2     1  UNL1       -0.2927
      3 C           6.1968   -0.4507    0.0000 C.3     1  UNL1       -0.0285
      4 C           7.0628   -0.9507    0.0000 C.3     1  UNL1       -0.0301
      5 C           7.9288   -0.4507    0.0000 C.3     1  UNL1       -0.0247
      6 C           7.9288    0.5493    0.0000 C.3     1  UNL1       -0.0007
      7 C           5.2868   -0.9575    0.0000 C.3     1  UNL1       -0.0078
      8 C           6.1968    0.5493    0.0000 C.3     1  UNL1       -0.0484
      9 C           7.0628    1.0493    0.0000 C.3     1  UNL1       -0.0430
     10 C           7.0789   -1.9922    0.0000 C.3     1  UNL1       -0.0311
     11 C           5.2787   -1.9991    0.0000 C.2     1  UNL1       -0.0648
     12 C           8.8750   -0.7554    0.0000 C.3     1  UNL1       -0.0302
     13 C           4.3599   -0.3935    0.0000 C.3     1  UNL1       -0.0413
     14 C           8.8750    0.8540    0.0000 C.2     1  UNL1       -0.0030
     15 C           6.1808   -2.5200    0.0000 C.2     1  UNL1       -0.0839
     16 C           7.9288    1.5493    0.0000 C.3     1  UNL1       -0.0552
     17 C           5.2945    0.0424    0.0000 C.3     1  UNL1       -0.0556
     18 C           9.4586    0.0493    0.0000 C.2     1  UNL1       -0.0767
     19 C           4.3433   -2.5489    0.0000 C.3     1  UNL1       -0.0051
     20 C           3.4120   -0.9214    0.0000 C.3     1  UNL1       -0.0258
     21 C           3.4037   -2.0064    0.0000 C.3     1  UNL1        0.0590
     22 C           9.1857    1.8046    0.0000 C.2     1  UNL1        0.1564
     23 C          10.1642    2.0108    0.0000 C.3     1  UNL1       -0.0017
     24 H           6.9329   -0.0257    0.0000 H       1  UNL1        0.0312
     25 H           7.8022   -1.3700    0.0000 H       1  UNL1        0.0310
     26 H           8.0188   -1.2959    0.0000 H       1  UNL1        0.0315
     27 H           5.9847    1.1319    0.0000 H       1  UNL1        0.0269
     28 H           5.5862    0.4416    0.0000 H       1  UNL1        0.0269
     29 H           7.4613    1.5243    0.0000 H       1  UNL1        0.0274
     30 H           6.6643    1.5243    0.0000 H       1  UNL1        0.0274
     31 H           7.2969   -2.5726    0.0000 H       1  UNL1        0.0310
     32 H           7.6880   -1.8767    0.0000 H       1  UNL1        0.0310
     33 H           8.6240   -1.3223    0.0000 H       1  UNL1        0.0311
     34 H           9.4124   -1.0647    0.0000 H       1  UNL1        0.0311
     35 H           4.7681    0.0732    0.0000 H       1  UNL1        0.0274
     36 H           3.9700    0.0886    0.0000 H       1  UNL1        0.0274
     37 H           6.1832   -3.1399    0.0000 H       1  UNL1        0.0572
     38 H           8.5488    1.5493    0.0000 H       1  UNL1        0.0238
     39 H           7.9288    2.1693    0.0000 H       1  UNL1        0.0238
     40 H           7.3088    1.5493    0.0000 H       1  UNL1        0.0238
     41 H           5.9145    0.0377    0.0000 H       1  UNL1        0.0238
     42 H           5.2993    0.6624    0.0000 H       1  UNL1        0.0238
     43 H           4.6745    0.0472    0.0000 H       1  UNL1        0.0238
     44 H          10.0786    0.0493    0.0000 H       1  UNL1        0.0576
     45 H           3.9460   -3.0248    0.0000 H       1  UNL1        0.0335
     46 H           4.7443   -3.0218    0.0000 H       1  UNL1        0.0335
     47 H           3.2075   -0.3361    0.0000 H       1  UNL1        0.0290
     48 H           2.8004   -1.0228    0.0000 H       1  UNL1        0.0290
     49 H           3.4025   -2.6264    0.0000 H       1  UNL1        0.0596
     50 H           2.0000   -2.1910    0.0000 H       1  UNL1        0.2098
     51 H          10.2921    1.4041    0.0000 H       1  UNL1        0.0309
     52 H          10.7709    2.1386    0.0000 H       1  UNL1        0.0309
     53 H          10.0364    2.6174    0.0000 H       1  UNL1        0.0309
@<TRIPOS>BOND
     1    21     1    1
     2     1    50    1
     3     2    22    2
     4     3     4    1
     5     3     7    1
     6     3     8    1
     7     3    24    1
     8     4     5    1
     9     4    10    1
    10     4    25    1
    11     5     6    1
    12     5    12    1
    13     5    26    1
    14     6     9    1
    15     6    14    1
    16     6    16    1
    17     7    11    1
    18     7    13    1
    19     7    17    1
    20     8     9    1
    21     8    27    1
    22     8    28    1
    23     9    29    1
    24     9    30    1
    25    10    15    1
    26    10    31    1
    27    10    32    1
    28    11    15    2
    29    11    19    1
    30    12    18    1
    31    12    33    1
    32    12    34    1
    33    13    20    1
    34    13    35    1
    35    13    36    1
    36    14    18    2
    37    14    22    1
    38    15    37    1
    39    16    38    1
    40    16    39    1
    41    16    40    1
    42    17    41    1
    43    17    42    1
    44    17    43    1
    45    18    44    1
    46    19    21    1
    47    19    45    1
    48    19    46    1
    49    20    21    1
    50    20    47    1
    51    20    48    1
    52    21    49    1
    53    22    23    1
    54    23    51    1
    55    23    52    1
    56    23    53    1
