@<TRIPOS>MOLECULE
IMPHY013239
 143 150 0 0 0
SMALL
GASTEIGER

@<TRIPOS>ATOM
      1 O           7.5844    0.6817    0.0000 O.3     1  UNL1       -0.3906
      2 O          10.4601    7.7274    0.0000 O.3     1  UNL1       -0.3912
      3 O           8.5991   -1.5312    0.0000 O.3     1  UNL1       -0.4306
      4 O           7.6143   -0.7048    0.0000 O.2     1  UNL1       -0.2500
      5 O           6.8671   -1.5312    0.0000 O.3     1  UNL1       -0.3360
      6 O           8.5991   -3.5312    0.0000 O.3     1  UNL1       -0.4523
      7 O           6.8671   -4.5312    0.0000 O.3     1  UNL1       -0.3389
      8 O           5.1350   -3.5312    0.0000 O.3     1  UNL1       -0.3868
      9 O           5.1350   -4.5312    0.0000 O.3     1  UNL1       -0.3405
     10 O           9.4651   -2.0311    0.0000 O.2     1  UNL1       -0.2508
     11 O           6.8671   -6.5312    0.0000 O.3     1  UNL1       -0.3841
     12 O           5.1350   -7.5312    0.0000 O.3     1  UNL1       -0.3864
     13 O           3.4030   -6.5312    0.0000 O.3     1  UNL1       -0.3865
     14 O           2.5369   -5.0312    0.0000 O.3     1  UNL1       -0.3924
     15 O          12.0632   -7.5312    0.0000 O.3     1  UNL1       -0.4915
     16 O          13.7953   -6.5312    0.0000 O.3     1  UNL1       -0.5033
     17 C           9.5048    3.0379    0.0000 C.3     1  UNL1       -0.0193
     18 C          10.3746    3.5312    0.0000 C.3     1  UNL1       -0.0257
     19 C          10.3987    4.5726    0.0000 C.3     1  UNL1       -0.0250
     20 C           9.4970    2.0379    0.0000 C.3     1  UNL1       -0.0028
     21 C           9.5048    5.1072    0.0000 C.3     1  UNL1       -0.0278
     22 C           8.5987    3.5517    0.0000 C.3     1  UNL1       -0.0463
     23 C          10.3592    1.5313    0.0000 C.2     1  UNL1       -0.0627
     24 C           8.5987    4.5934    0.0000 C.3     1  UNL1       -0.0486
     25 C           9.5048    6.1922    0.0000 C.3     1  UNL1       -0.0056
     26 C          10.3672    0.4897    0.0000 C.3     1  UNL1       -0.0007
     27 C          11.2368    3.0245    0.0000 C.3     1  UNL1       -0.0306
     28 C           8.5832    1.5381    0.0000 C.3     1  UNL1       -0.0162
     29 C          11.3546    5.0858    0.0000 C.3     1  UNL1       -0.0447
     30 C           9.4651   -0.0312    0.0000 C.3     1  UNL1        0.1000
     31 C           8.5671    0.4966    0.0000 C.3     1  UNL1        0.0723
     32 C           8.5186    2.8719    0.0000 C.3     1  UNL1       -0.0585
     33 C          10.4485    6.7274    0.0000 C.3     1  UNL1        0.0606
     34 C          11.2290    2.0246    0.0000 C.2     1  UNL1       -0.0836
     35 C          11.2569    4.0593    0.0000 C.3     1  UNL1       -0.0590
     36 C          11.3797    6.1705    0.0000 C.3     1  UNL1       -0.0258
     37 C           8.5136    2.2192    0.0000 C.3     1  UNL1       -0.0552
     38 C          11.3151   -0.0383    0.0000 C.3     1  UNL1       -0.0402
     39 C           9.4484   -1.1160    0.0000 C.3     1  UNL1       -0.0338
     40 C          11.3235   -1.1232    0.0000 C.3     1  UNL1       -0.0343
     41 C           9.0081    7.0602    0.0000 C.3     1  UNL1       -0.0572
     42 C           8.5048    6.1961    0.0000 C.3     1  UNL1       -0.0572
     43 C          10.3838   -1.6657    0.0000 C.3     1  UNL1       -0.0467
     44 C           8.5991   -0.5312    0.0000 C.2     1  UNL1        0.3187
     45 C          12.3235   -1.1194    0.0000 C.3     1  UNL1       -0.0598
     46 C          11.8268   -1.9873    0.0000 C.3     1  UNL1       -0.0598
     47 C           7.7331   -2.0311    0.0000 C.3     1  UNL1        0.2447
     48 C           7.7331   -3.0311    0.0000 C.3     1  UNL1        0.1933
     49 C           6.8671   -3.5312    0.0000 C.3     1  UNL1        0.1324
     50 C           6.0010   -2.0311    0.0000 C.3     1  UNL1        0.0803
     51 C           6.0010   -3.0311    0.0000 C.3     1  UNL1        0.1084
     52 C           9.4651   -3.0311    0.0000 C.2     1  UNL1        0.3079
     53 C           6.0010   -5.0312    0.0000 C.3     1  UNL1        0.1885
     54 C           6.0010   -6.0312    0.0000 C.3     1  UNL1        0.1341
     55 C          10.3312   -3.5312    0.0000 C.3     1  UNL1        0.0489
     56 C           5.1350   -6.5312    0.0000 C.3     1  UNL1        0.1141
     57 C           4.2690   -5.0312    0.0000 C.3     1  UNL1        0.1130
     58 C           4.2690   -6.0312    0.0000 C.3     1  UNL1        0.1119
     59 C          10.3312   -4.5312    0.0000 C.3     1  UNL1       -0.0175
     60 C           3.4030   -4.5312    0.0000 C.3     1  UNL1        0.0730
     61 C          11.1972   -5.0312    0.0000 C.ar    1  UNL1       -0.0432
     62 C          11.1972   -6.0312    0.0000 C.ar    1  UNL1       -0.0131
     63 C          12.0632   -4.5312    0.0000 C.ar    1  UNL1       -0.0549
     64 C          12.0632   -6.5312    0.0000 C.ar    1  UNL1        0.1615
     65 C          12.9292   -5.0312    0.0000 C.ar    1  UNL1       -0.0163
     66 C          12.9292   -6.0312    0.0000 C.ar    1  UNL1        0.1585
     67 C          12.9292   -8.0312    0.0000 C.3     1  UNL1        0.0790
     68 H          10.9163    3.8329    0.0000 H       1  UNL1        0.0315
     69 H           8.9690    5.4193    0.0000 H       1  UNL1        0.0312
     70 H           7.9878    3.6578    0.0000 H       1  UNL1        0.0271
     71 H           8.3896    2.9680    0.0000 H       1  UNL1        0.0271
     72 H           8.3896    5.1771    0.0000 H       1  UNL1        0.0268
     73 H           7.9878    4.4873    0.0000 H       1  UNL1        0.0268
     74 H          10.9005    0.8059    0.0000 H       1  UNL1        0.0357
     75 H          11.8465    2.9122    0.0000 H       1  UNL1        0.0310
     76 H          11.4533    3.6055    0.0000 H       1  UNL1        0.0310
     77 H           8.3831    2.1250    0.0000 H       1  UNL1        0.0299
     78 H           7.9707    1.4414    0.0000 H       1  UNL1        0.0299
     79 H          11.5501    4.4975    0.0000 H       1  UNL1        0.0271
     80 H          11.9678    5.1778    0.0000 H       1  UNL1        0.0271
     81 H           8.3494   -0.0839    0.0000 H       1  UNL1        0.0605
     82 H           8.4157    3.4833    0.0000 H       1  UNL1        0.0235
     83 H           7.9072    2.7689    0.0000 H       1  UNL1        0.0235
     84 H           8.6216    2.2605    0.0000 H       1  UNL1        0.0235
     85 H          10.9896    7.0302    0.0000 H       1  UNL1        0.0599
     86 H          11.7636    1.7104    0.0000 H       1  UNL1        0.0572
     87 H          10.9387    3.5272    0.0000 H       1  UNL1        0.0235
     88 H          11.7890    3.7410    0.0000 H       1  UNL1        0.0235
     89 H          11.5751    4.5914    0.0000 H       1  UNL1        0.0235
     90 H          11.9879    6.0503    0.0000 H       1  UNL1        0.0290
     91 H          11.6022    6.7492    0.0000 H       1  UNL1        0.0290
     92 H           8.6260    2.8289    0.0000 H       1  UNL1        0.0238
     93 H           7.9039    2.3315    0.0000 H       1  UNL1        0.0238
     94 H           8.4012    1.6094    0.0000 H       1  UNL1        0.0238
     95 H          11.9268   -0.1397    0.0000 H       1  UNL1        0.0276
     96 H          11.5197    0.5470    0.0000 H       1  UNL1        0.0276
     97 H           8.8393   -1.0005    0.0000 H       1  UNL1        0.0277
     98 H           9.2304   -1.6964    0.0000 H       1  UNL1        0.0277
     99 H           9.5462    7.3681    0.0000 H       1  UNL1        0.0236
    100 H           8.7002    7.5983    0.0000 H       1  UNL1        0.0236
    101 H           8.4700    6.7522    0.0000 H       1  UNL1        0.0236
    102 H           8.5072    6.8161    0.0000 H       1  UNL1        0.0236
    103 H           7.8848    6.1985    0.0000 H       1  UNL1        0.0236
    104 H           8.5024    5.5761    0.0000 H       1  UNL1        0.0236
    105 H           9.9829   -2.1386    0.0000 H       1  UNL1        0.0271
    106 H          10.7811   -2.1417    0.0000 H       1  UNL1        0.0271
    107 H           7.3791    1.2667    0.0000 H       1  UNL1        0.2098
    108 H          12.3258   -1.7394    0.0000 H       1  UNL1        0.0235
    109 H          12.9435   -1.1170    0.0000 H       1  UNL1        0.0235
    110 H          12.3211   -0.4994    0.0000 H       1  UNL1        0.0235
    111 H          11.2911   -2.2994    0.0000 H       1  UNL1        0.0235
    112 H          12.1389   -2.5231    0.0000 H       1  UNL1        0.0235
    113 H          12.3625   -1.6753    0.0000 H       1  UNL1        0.0235
    114 H          11.0006    8.0312    0.0000 H       1  UNL1        0.2098
    115 H           8.2700   -2.3412    0.0000 H       1  UNL1        0.1097
    116 H           7.7331   -3.6512    0.0000 H       1  UNL1        0.0825
    117 H           6.3301   -3.8412    0.0000 H       1  UNL1        0.0663
    118 H           5.7890   -1.4485    0.0000 H       1  UNL1        0.0588
    119 H           5.3905   -2.1388    0.0000 H       1  UNL1        0.0588
    120 H           5.4641   -2.7212    0.0000 H       1  UNL1        0.0644
    121 H           4.5981   -3.2212    0.0000 H       1  UNL1        0.2100
    122 H           6.0010   -4.4112    0.0000 H       1  UNL1        0.0938
    123 H           6.0010   -6.6512    0.0000 H       1  UNL1        0.0671
    124 H          10.9417   -3.6388    0.0000 H       1  UNL1        0.0381
    125 H          10.5432   -2.9485    0.0000 H       1  UNL1        0.0381
    126 H           4.5981   -6.8412    0.0000 H       1  UNL1        0.0648
    127 H           4.2690   -4.4112    0.0000 H       1  UNL1        0.0647
    128 H           4.2690   -6.6512    0.0000 H       1  UNL1        0.0647
    129 H           9.7206   -4.4235    0.0000 H       1  UNL1        0.0318
    130 H          10.1191   -5.1138    0.0000 H       1  UNL1        0.0318
    131 H           7.4040   -6.2212    0.0000 H       1  UNL1        0.2101
    132 H           3.8015   -4.0562    0.0000 H       1  UNL1        0.0584
    133 H           3.0044   -4.0562    0.0000 H       1  UNL1        0.0584
    134 H           5.6720   -7.8412    0.0000 H       1  UNL1        0.2100
    135 H           3.4030   -7.1512    0.0000 H       1  UNL1        0.2100
    136 H           2.0000   -4.7212    0.0000 H       1  UNL1        0.2095
    137 H          10.6603   -6.3412    0.0000 H       1  UNL1        0.0658
    138 H          12.0632   -3.9112    0.0000 H       1  UNL1        0.0621
    139 H          13.4662   -4.7212    0.0000 H       1  UNL1        0.0655
    140 H          14.3322   -6.2212    0.0000 H       1  UNL1        0.2923
    141 H          12.6192   -8.5681    0.0000 H       1  UNL1        0.0660
    142 H          13.4662   -8.3412    0.0000 H       1  UNL1        0.0660
    143 H          13.2392   -7.4942    0.0000 H       1  UNL1        0.0660
@<TRIPOS>BOND
     1     1    31    1
     2     1   107    1
     3     2    33    1
     4     2   114    1
     5     3    44    1
     6     3    47    1
     7     4    44    2
     8     5    47    1
     9     5    50    1
    10     6    48    1
    11     6    52    1
    12     7    49    1
    13     7    53    1
    14     8    51    1
    15     8   121    1
    16     9    53    1
    17     9    57    1
    18    10    52    2
    19    11    54    1
    20    11   131    1
    21    12    56    1
    22    12   134    1
    23    13    58    1
    24    13   135    1
    25    14    60    1
    26    14   136    1
    27    15    64    1
    28    15    67    1
    29    16    66    1
    30    16   140    1
    31    17    18    1
    32    17    20    1
    33    17    22    1
    34    17    32    1
    35    18    19    1
    36    18    27    1
    37    18    68    1
    38    19    21    1
    39    19    29    1
    40    19    35    1
    41    20    23    1
    42    20    28    1
    43    20    37    1
    44    21    24    1
    45    21    25    1
    46    21    69    1
    47    22    24    1
    48    22    70    1
    49    22    71    1
    50    23    26    1
    51    23    34    2
    52    24    72    1
    53    24    73    1
    54    25    33    1
    55    25    41    1
    56    25    42    1
    57    26    30    1
    58    26    38    1
    59    26    74    1
    60    27    34    1
    61    27    75    1
    62    27    76    1
    63    28    31    1
    64    28    77    1
    65    28    78    1
    66    29    36    1
    67    29    79    1
    68    29    80    1
    69    30    31    1
    70    30    39    1
    71    30    44    1
    72    31    81    1
    73    32    82    1
    74    32    83    1
    75    32    84    1
    76    33    36    1
    77    33    85    1
    78    34    86    1
    79    35    87    1
    80    35    88    1
    81    35    89    1
    82    36    90    1
    83    36    91    1
    84    37    92    1
    85    37    93    1
    86    37    94    1
    87    38    40    1
    88    38    95    1
    89    38    96    1
    90    39    43    1
    91    39    97    1
    92    39    98    1
    93    40    43    1
    94    40    45    1
    95    40    46    1
    96    41    99    1
    97    41   100    1
    98    41   101    1
    99    42   102    1
   100    42   103    1
   101    42   104    1
   102    43   105    1
   103    43   106    1
   104    45   108    1
   105    45   109    1
   106    45   110    1
   107    46   111    1
   108    46   112    1
   109    46   113    1
   110    47    48    1
   111    47   115    1
   112    48    49    1
   113    48   116    1
   114    49    51    1
   115    49   117    1
   116    50    51    1
   117    50   118    1
   118    50   119    1
   119    51   120    1
   120    52    55    1
   121    53    54    1
   122    53   122    1
   123    54    56    1
   124    54   123    1
   125    55    59    1
   126    55   124    1
   127    55   125    1
   128    56    58    1
   129    56   126    1
   130    57    58    1
   131    57    60    1
   132    57   127    1
   133    58   128    1
   134    59    61    1
   135    59   129    1
   136    59   130    1
   137    60   132    1
   138    60   133    1
   139    61    62   ar
   140    61    63   ar
   141    62    64   ar
   142    62   137    1
   143    63    65   ar
   144    63   138    1
   145    64    66   ar
   146    65    66   ar
   147    65   139    1
   148    67   141    1
   149    67   142    1
   150    67   143    1
