@<TRIPOS>MOLECULE
IMPHY015694
 48 48 0 0 0
SMALL
GASTEIGER

@<TRIPOS>ATOM
      1 O           3.7601   -1.3742    0.0000 O.3     1  UNL1       -0.4613
      2 O           2.0000   -1.0955    0.0000 O.2     1  UNL1       -0.2508
      3 C           4.5691   -0.7864    0.0000 C.3     1  UNL1        0.1036
      4 C           5.5202   -1.0955    0.0000 C.3     1  UNL1       -0.0157
      5 C           6.2633   -0.4263    0.0000 C.3     1  UNL1       -0.0497
      6 C           7.2144   -0.7354    0.0000 C.3     1  UNL1       -0.0529
      7 C           7.9575   -0.0662    0.0000 C.3     1  UNL1       -0.0531
      8 C           4.2601    0.1646    0.0000 C.3     1  UNL1       -0.0056
      9 C           8.9086   -0.3752    0.0000 C.3     1  UNL1       -0.0531
     10 C           9.6517    0.2939    0.0000 C.3     1  UNL1       -0.0531
     11 C          10.6028   -0.0151    0.0000 C.3     1  UNL1       -0.0531
     12 C           3.2601    0.1646    0.0000 C.3     1  UNL1        0.0483
     13 C          11.3459    0.6540    0.0000 C.3     1  UNL1       -0.0531
     14 C          12.2970    0.3450    0.0000 C.3     1  UNL1       -0.0531
     15 C           2.9511   -0.7864    0.0000 C.2     1  UNL1        0.3075
     16 C          13.0401    1.0141    0.0000 C.3     1  UNL1       -0.0533
     17 C          13.9912    0.7051    0.0000 C.3     1  UNL1       -0.0559
     18 C          14.7343    1.3742    0.0000 C.3     1  UNL1       -0.0653
     19 H           4.6661   -1.3988    0.0000 H       1  UNL1        0.0734
     20 H           5.2291   -1.6429    0.0000 H       1  UNL1        0.0301
     21 H           6.0087   -1.4772    0.0000 H       1  UNL1        0.0301
     22 H           6.5544    0.1211    0.0000 H       1  UNL1        0.0266
     23 H           5.7747   -0.0446    0.0000 H       1  UNL1        0.0266
     24 H           6.9233   -1.2828    0.0000 H       1  UNL1        0.0265
     25 H           7.7029   -1.1171    0.0000 H       1  UNL1        0.0265
     26 H           8.2486    0.4812    0.0000 H       1  UNL1        0.0265
     27 H           7.4689    0.3155    0.0000 H       1  UNL1        0.0265
     28 H           4.8665    0.2935    0.0000 H       1  UNL1        0.0306
     29 H           4.1953    0.7812    0.0000 H       1  UNL1        0.0306
     30 H           8.6175   -0.9227    0.0000 H       1  UNL1        0.0265
     31 H           9.3971   -0.7569    0.0000 H       1  UNL1        0.0265
     32 H           9.9428    0.8413    0.0000 H       1  UNL1        0.0265
     33 H           9.1631    0.6756    0.0000 H       1  UNL1        0.0265
     34 H          10.3117   -0.5626    0.0000 H       1  UNL1        0.0265
     35 H          11.0913   -0.3968    0.0000 H       1  UNL1        0.0265
     36 H           3.3249    0.7812    0.0000 H       1  UNL1        0.0379
     37 H           2.6536    0.2935    0.0000 H       1  UNL1        0.0379
     38 H          11.6370    1.2014    0.0000 H       1  UNL1        0.0265
     39 H          10.8573    1.0357    0.0000 H       1  UNL1        0.0265
     40 H          12.0059   -0.2024    0.0000 H       1  UNL1        0.0265
     41 H          12.7855   -0.0367    0.0000 H       1  UNL1        0.0265
     42 H          13.3312    1.5616    0.0000 H       1  UNL1        0.0265
     43 H          12.5515    1.3958    0.0000 H       1  UNL1        0.0265
     44 H          13.7001    0.1577    0.0000 H       1  UNL1        0.0263
     45 H          14.4797    0.3234    0.0000 H       1  UNL1        0.0263
     46 H          15.1492    0.9135    0.0000 H       1  UNL1        0.0230
     47 H          15.1950    1.7891    0.0000 H       1  UNL1        0.0230
     48 H          14.3194    1.8350    0.0000 H       1  UNL1        0.0230
@<TRIPOS>BOND
     1     1     3    1
     2     1    15    1
     3     2    15    2
     4     3     4    1
     5     3     8    1
     6     3    19    1
     7     4     5    1
     8     4    20    1
     9     4    21    1
    10     5     6    1
    11     5    22    1
    12     5    23    1
    13     6     7    1
    14     6    24    1
    15     6    25    1
    16     7     9    1
    17     7    26    1
    18     7    27    1
    19     8    12    1
    20     8    28    1
    21     8    29    1
    22     9    10    1
    23     9    30    1
    24     9    31    1
    25    10    11    1
    26    10    32    1
    27    10    33    1
    28    11    13    1
    29    11    34    1
    30    11    35    1
    31    12    15    1
    32    12    36    1
    33    12    37    1
    34    13    14    1
    35    13    38    1
    36    13    39    1
    37    14    16    1
    38    14    40    1
    39    14    41    1
    40    16    17    1
    41    16    42    1
    42    16    43    1
    43    17    18    1
    44    17    44    1
    45    17    45    1
    46    18    46    1
    47    18    47    1
    48    18    48    1
