@<TRIPOS>MOLECULE
IMPHY009686
 41 43 0 0 0
SMALL
GASTEIGER

@<TRIPOS>ATOM
      1 O           6.0290   -0.9226    0.0000 O.2     1  UNL1       -0.4613
      2 O           2.5369    1.1121    0.0000 O.3     1  UNL1       -0.3862
      3 O           2.5369   -0.8879    0.0000 O.3     1  UNL1       -0.3861
      4 O           4.2690    2.1121    0.0000 O.3     1  UNL1       -0.3843
      5 O           4.2690   -1.8879    0.0000 O.3     1  UNL1       -0.3814
      6 O           6.0174    2.1467    0.0000 O.2     1  UNL1       -0.2873
      7 C           3.4030    0.6121    0.0000 C.3     1  UNL1        0.1140
      8 C           3.4030   -0.3879    0.0000 C.3     1  UNL1        0.1166
      9 C           4.2690    1.1121    0.0000 C.3     1  UNL1        0.1153
     10 C           4.2690   -0.8879    0.0000 C.3     1  UNL1        0.1413
     11 C           5.1350    0.6121    0.0000 C.ar    1  UNL1        0.0707
     12 C           5.1350   -0.3879    0.0000 C.ar    1  UNL1        0.1454
     13 C           6.0290    1.1467    0.0000 C.ar    1  UNL1        0.1911
     14 C           6.9350   -0.4087    0.0000 C.ar    1  UNL1        0.1092
     15 C           6.9350    0.6329    0.0000 C.ar    1  UNL1        0.0236
     16 C           7.7991   -0.9121    0.0000 C.3     1  UNL1        0.0096
     17 C           8.6671   -0.4154    0.0000 C.3     1  UNL1       -0.0208
     18 C           9.5312   -0.9188    0.0000 C.ar    1  UNL1       -0.0470
     19 C           9.5273   -1.9187    0.0000 C.ar    1  UNL1       -0.0586
     20 C          10.3991   -0.4221    0.0000 C.ar    1  UNL1       -0.0586
     21 C          10.3914   -2.4221    0.0000 C.ar    1  UNL1       -0.0615
     22 C          11.2632   -0.9254    0.0000 C.ar    1  UNL1       -0.0615
     23 C          11.2593   -1.9254    0.0000 C.ar    1  UNL1       -0.0617
     24 H           2.8660    0.3021    0.0000 H       1  UNL1        0.0649
     25 H           3.4030   -1.0079    0.0000 H       1  UNL1        0.0651
     26 H           4.8059    1.4221    0.0000 H       1  UNL1        0.0673
     27 H           4.8059   -1.1979    0.0000 H       1  UNL1        0.0702
     28 H           7.4708    0.9450    0.0000 H       1  UNL1        0.0689
     29 H           7.3988   -1.3855    0.0000 H       1  UNL1        0.0347
     30 H           8.1958   -1.3886    0.0000 H       1  UNL1        0.0347
     31 H           2.0000    0.8021    0.0000 H       1  UNL1        0.2100
     32 H           2.5369   -1.5079    0.0000 H       1  UNL1        0.2100
     33 H           3.7320    2.4221    0.0000 H       1  UNL1        0.2103
     34 H           3.7320   -2.1979    0.0000 H       1  UNL1        0.2105
     35 H           9.0674    0.0580    0.0000 H       1  UNL1        0.0317
     36 H           8.2704    0.0611    0.0000 H       1  UNL1        0.0317
     37 H           8.9892   -2.2267    0.0000 H       1  UNL1        0.0620
     38 H          10.4015    0.1979    0.0000 H       1  UNL1        0.0620
     39 H          10.3890   -3.0421    0.0000 H       1  UNL1        0.0618
     40 H          11.8013   -0.6175    0.0000 H       1  UNL1        0.0618
     41 H          11.7951   -2.2375    0.0000 H       1  UNL1        0.0618
@<TRIPOS>BOND
     1     1    12   ar
     2     1    14   ar
     3     7     2    1
     4     2    31    1
     5     8     3    1
     6     3    32    1
     7     9     4    1
     8     4    33    1
     9    10     5    1
    10     5    34    1
    11     6    13    2
    12     7     8    1
    13     7     9    1
    14     7    24    1
    15     8    10    1
    16     8    25    1
    17     9    11    1
    18     9    26    1
    19    10    12    1
    20    10    27    1
    21    11    12   ar
    22    11    13   ar
    23    13    15   ar
    24    14    15   ar
    25    14    16    1
    26    15    28    1
    27    16    17    1
    28    16    29    1
    29    16    30    1
    30    17    18    1
    31    17    35    1
    32    17    36    1
    33    18    19   ar
    34    18    20   ar
    35    19    21   ar
    36    19    37    1
    37    20    22   ar
    38    20    38    1
    39    21    23   ar
    40    21    39    1
    41    22    23   ar
    42    22    40    1
    43    23    41    1
