@<TRIPOS>MOLECULE
IMPHY012512
 81 86 0 0 0
SMALL
GASTEIGER

@<TRIPOS>ATOM
      1 O           9.5288   -0.7303    0.0000 O.2     1  UNL1       -0.2962
      2 O           6.0010    2.7876    0.0000 O.3     1  UNL1       -0.3480
      3 O          13.4234   -2.8264    0.0000 O.3     1  UNL1       -0.4571
      4 O           4.2690    2.7876    0.0000 O.3     1  UNL1       -0.3456
      5 O          15.0348   -2.0654    0.0000 O.2     1  UNL1       -0.2456
      6 O           4.2690   -0.2124    0.0000 O.3     1  UNL1       -0.3770
      7 O           2.5369    0.7876    0.0000 O.3     1  UNL1       -0.3867
      8 C          10.5221    1.2178    0.0000 C.3     1  UNL1        0.0329
      9 C           9.6541    0.7211    0.0000 C.3     1  UNL1       -0.0230
     10 C           8.7461    1.2315    0.0000 C.3     1  UNL1       -0.0254
     11 C           8.7421    2.2731    0.0000 C.3     1  UNL1       -0.0330
     12 C          10.8532   -1.3743    0.0000 C.3     1  UNL1        0.0333
     13 C          10.5422    2.2592    0.0000 C.3     1  UNL1       -0.0401
     14 C           9.3916   -0.2438    0.0000 C.3     1  UNL1       -0.0479
     15 C          11.4870    0.9552    0.0000 C.3     1  UNL1       -0.0398
     16 C          10.3245   -0.1246    0.0000 C.2     1  UNL1        0.1461
     17 C           9.6462    2.7904    0.0000 C.3     1  UNL1       -0.0487
     18 C           9.8882   -1.1117    0.0000 C.3     1  UNL1       -0.0400
     19 C           7.8171    0.6710    0.0000 C.3     1  UNL1       -0.0447
     20 C          11.7211   -0.8776    0.0000 C.3     1  UNL1       -0.0041
     21 C          11.9837    0.0873    0.0000 C.3     1  UNL1       -0.0446
     22 C           7.8088    2.8264    0.0000 C.3     1  UNL1       -0.0232
     23 C           8.7500    0.2315    0.0000 C.3     1  UNL1       -0.0590
     24 C           6.8712    1.2026    0.0000 C.3     1  UNL1       -0.0260
     25 C           6.8671    2.2876    0.0000 C.3     1  UNL1        0.0620
     26 C          10.9799   -2.3662    0.0000 C.3     1  UNL1       -0.0523
     27 C          12.5121   -1.4894    0.0000 C.2     1  UNL1       -0.0219
     28 C          12.4821   -2.4890    0.0000 C.3     1  UNL1        0.1147
     29 C          13.4720   -1.2091    0.0000 C.2     1  UNL1        0.0252
     30 C           5.1350    2.2876    0.0000 C.3     1  UNL1        0.1624
     31 C          14.0353   -2.0354    0.0000 C.2     1  UNL1        0.3323
     32 C           5.1350    1.2876    0.0000 C.3     1  UNL1        0.0272
     33 C           4.2690    0.7876    0.0000 C.3     1  UNL1        0.0911
     34 C           3.4030    2.2876    0.0000 C.3     1  UNL1        0.0871
     35 C           3.4030    1.2876    0.0000 C.3     1  UNL1        0.1073
     36 C           2.5369    2.7876    0.0000 C.3     1  UNL1       -0.0361
     37 C           3.4030   -0.7124    0.0000 C.3     1  UNL1        0.0369
     38 H           9.0822    0.4817    0.0000 H       1  UNL1        0.0316
     39 H           8.7469    2.8931    0.0000 H       1  UNL1        0.0307
     40 H          11.1509    2.1414    0.0000 H       1  UNL1        0.0275
     41 H          10.7624    2.8388    0.0000 H       1  UNL1        0.0275
     42 H           8.8559    0.0683    0.0000 H       1  UNL1        0.0269
     43 H           8.9515   -0.6805    0.0000 H       1  UNL1        0.0269
     44 H          12.0865    1.1134    0.0000 H       1  UNL1        0.0275
     45 H          11.4894    1.5752    0.0000 H       1  UNL1        0.0275
     46 H          10.0489    3.2618    0.0000 H       1  UNL1        0.0268
     47 H           9.2507    3.2679    0.0000 H       1  UNL1        0.0268
     48 H           9.2888   -1.2699    0.0000 H       1  UNL1        0.0275
     49 H           9.8859   -1.7317    0.0000 H       1  UNL1        0.0275
     50 H           7.4253    0.1904    0.0000 H       1  UNL1        0.0271
     51 H           8.2235    0.2027    0.0000 H       1  UNL1        0.0271
     52 H          11.6782   -1.4961    0.0000 H       1  UNL1        0.0356
     53 H          12.5194   -0.2248    0.0000 H       1  UNL1        0.0272
     54 H          12.4238    0.5240    0.0000 H       1  UNL1        0.0272
     55 H           8.2116    3.2978    0.0000 H       1  UNL1        0.0293
     56 H           7.4133    3.3039    0.0000 H       1  UNL1        0.0293
     57 H           8.1299    0.2291    0.0000 H       1  UNL1        0.0235
     58 H           8.7523   -0.3885    0.0000 H       1  UNL1        0.0235
     59 H           9.3699    0.2339    0.0000 H       1  UNL1        0.0235
     60 H           6.2600    1.3063    0.0000 H       1  UNL1        0.0290
     61 H           6.6644    0.6181    0.0000 H       1  UNL1        0.0290
     62 H           6.8683    2.9076    0.0000 H       1  UNL1        0.0597
     63 H          10.3649   -2.4448    0.0000 H       1  UNL1        0.0239
     64 H          11.0584   -2.9812    0.0000 H       1  UNL1        0.0239
     65 H          11.5949   -2.2877    0.0000 H       1  UNL1        0.0239
     66 H          11.8677   -2.4057    0.0000 H       1  UNL1        0.0746
     67 H          12.3350   -3.0913    0.0000 H       1  UNL1        0.0746
     68 H          13.6812   -0.6255    0.0000 H       1  UNL1        0.0689
     69 H           5.1350    2.9076    0.0000 H       1  UNL1        0.0910
     70 H           5.3471    0.7049    0.0000 H       1  UNL1        0.0340
     71 H           5.7456    1.3952    0.0000 H       1  UNL1        0.0340
     72 H           4.8059    0.4776    0.0000 H       1  UNL1        0.0624
     73 H           3.4030    2.9076    0.0000 H       1  UNL1        0.0621
     74 H           3.4030    0.6676    0.0000 H       1  UNL1        0.0645
     75 H           2.8469    3.3245    0.0000 H       1  UNL1        0.0255
     76 H           2.0000    3.0976    0.0000 H       1  UNL1        0.0255
     77 H           2.2269    2.2506    0.0000 H       1  UNL1        0.0255
     78 H           2.0000    1.0976    0.0000 H       1  UNL1        0.2100
     79 H           3.0930   -0.1755    0.0000 H       1  UNL1        0.0524
     80 H           2.8660   -1.0224    0.0000 H       1  UNL1        0.0524
     81 H           3.7130   -1.2494    0.0000 H       1  UNL1        0.0524
@<TRIPOS>BOND
     1     1    16    2
     2     2    25    1
     3     2    30    1
     4     3    28    1
     5     3    31    1
     6     4    30    1
     7     4    34    1
     8     5    31    2
     9     6    33    1
    10     6    37    1
    11     7    35    1
    12     7    78    1
    13     8     9    1
    14     8    13    1
    15     8    15    1
    16     8    16    1
    17     9    10    1
    18     9    14    1
    19     9    38    1
    20    10    11    1
    21    10    19    1
    22    10    23    1
    23    11    17    1
    24    11    22    1
    25    11    39    1
    26    12    16    1
    27    12    18    1
    28    12    20    1
    29    12    26    1
    30    13    17    1
    31    13    40    1
    32    13    41    1
    33    14    18    1
    34    14    42    1
    35    14    43    1
    36    15    21    1
    37    15    44    1
    38    15    45    1
    39    17    46    1
    40    17    47    1
    41    18    48    1
    42    18    49    1
    43    19    24    1
    44    19    50    1
    45    19    51    1
    46    20    21    1
    47    20    27    1
    48    20    52    1
    49    21    53    1
    50    21    54    1
    51    22    25    1
    52    22    55    1
    53    22    56    1
    54    23    57    1
    55    23    58    1
    56    23    59    1
    57    24    25    1
    58    24    60    1
    59    24    61    1
    60    25    62    1
    61    26    63    1
    62    26    64    1
    63    26    65    1
    64    27    28    1
    65    27    29    2
    66    28    66    1
    67    28    67    1
    68    29    31    1
    69    29    68    1
    70    30    32    1
    71    30    69    1
    72    32    33    1
    73    32    70    1
    74    32    71    1
    75    33    35    1
    76    33    72    1
    77    34    35    1
    78    34    36    1
    79    34    73    1
    80    35    74    1
    81    36    75    1
    82    36    76    1
    83    36    77    1
    84    37    79    1
    85    37    80    1
    86    37    81    1
