@<TRIPOS>MOLECULE
IMPHY002596
 92 95 0 0 0
SMALL
GASTEIGER

@<TRIPOS>ATOM
      1 O           5.1350   -3.2692    0.0000 O.3     1  UNL1       -0.3404
      2 O           6.8671   -3.2692    0.0000 O.3     1  UNL1       -0.3061
      3 O          16.0531    4.5722    0.0000 O.3     1  UNL1       -0.3313
      4 O           5.1350   -6.2692    0.0000 O.3     1  UNL1       -0.3864
      5 O           3.4030   -5.2692    0.0000 O.3     1  UNL1       -0.3865
      6 O           6.8671   -5.2692    0.0000 O.3     1  UNL1       -0.3841
      7 O          18.3647    3.2852    0.0000 O.3     1  UNL1       -0.3865
      8 O          17.0791    1.7531    0.0000 O.3     1  UNL1       -0.3864
      9 O          14.4255    3.9798    0.0000 O.3     1  UNL1       -0.4572
     10 O           6.0010   -1.7692    0.0000 O.2     1  UNL1       -0.4666
     11 O          15.1095    2.1004    0.0000 O.3     1  UNL1       -0.3829
     12 O           2.5369   -3.7692    0.0000 O.3     1  UNL1       -0.3924
     13 O          17.3386    6.1043    0.0000 O.3     1  UNL1       -0.3924
     14 O          10.2267    0.3232    0.0000 O.3     1  UNL1       -0.4643
     15 O           6.0010    1.2308    0.0000 O.3     1  UNL1       -0.4646
     16 O          10.3312   -2.2692    0.0000 O.3     1  UNL1       -0.3910
     17 O           8.8999    1.4365    0.0000 O.2     1  UNL1       -0.2508
     18 O           7.2091    1.6705    0.0000 O.2     1  UNL1       -0.2452
     19 O          12.4558    4.3271    0.0000 O.3     1  UNL1       -0.5033
     20 C           5.1350   -5.2692    0.0000 C.3     1  UNL1        0.1141
     21 C           4.2690   -4.7692    0.0000 C.3     1  UNL1        0.1119
     22 C           6.0010   -4.7692    0.0000 C.3     1  UNL1        0.1343
     23 C           4.2690   -3.7692    0.0000 C.3     1  UNL1        0.1130
     24 C           6.0010   -3.7692    0.0000 C.3     1  UNL1        0.1921
     25 C          17.3799    3.4588    0.0000 C.3     1  UNL1        0.1120
     26 C          16.7371    2.6928    0.0000 C.3     1  UNL1        0.1152
     27 C          17.0379    4.3985    0.0000 C.3     1  UNL1        0.1140
     28 C          15.7523    2.8664    0.0000 C.3     1  UNL1        0.1454
     29 C          15.4103    3.8061    0.0000 C.3     1  UNL1        0.2310
     30 C           3.4030   -3.2692    0.0000 C.3     1  UNL1        0.0730
     31 C           6.8671   -2.2692    0.0000 C.3     1  UNL1        0.2266
     32 C           7.7331   -0.7692    0.0000 C.3     1  UNL1        0.0308
     33 C           7.7331   -1.7692    0.0000 C.2     1  UNL1        0.0043
     34 C          17.6806    5.1646    0.0000 C.3     1  UNL1        0.0731
     35 C           6.8671   -0.2692    0.0000 C.2     1  UNL1        0.0785
     36 C           8.5991   -0.2692    0.0000 C.3     1  UNL1        0.0559
     37 C           8.5991   -2.2692    0.0000 C.2     1  UNL1       -0.0533
     38 C           6.0010   -0.7692    0.0000 C.2     1  UNL1        0.0988
     39 C          13.7827    3.2137    0.0000 C.ar    1  UNL1        0.1652
     40 C           9.2419    0.4968    0.0000 C.2     1  UNL1        0.3080
     41 C           6.8671    0.7308    0.0000 C.2     1  UNL1        0.3384
     42 C           9.4651   -1.7692    0.0000 C.3     1  UNL1        0.0628
     43 C          12.7979    3.3874    0.0000 C.ar    1  UNL1        0.1588
     44 C          14.1247    2.2740    0.0000 C.ar    1  UNL1       -0.0159
     45 C          12.4971    1.6816    0.0000 C.ar    1  UNL1       -0.0405
     46 C          11.8543    0.9156    0.0000 C.3     1  UNL1        0.0069
     47 C          10.8695    1.0892    0.0000 C.3     1  UNL1        0.0964
     48 C          12.1551    2.6213    0.0000 C.ar    1  UNL1       -0.0132
     49 C          13.4819    1.5080    0.0000 C.ar    1  UNL1       -0.0548
     50 C           6.0010    2.2308    0.0000 C.3     1  UNL1        0.0820
     51 H           5.6720   -5.5792    0.0000 H       1  UNL1        0.0648
     52 H           4.2690   -5.3892    0.0000 H       1  UNL1        0.0647
     53 H           6.5380   -4.4592    0.0000 H       1  UNL1        0.0671
     54 H           4.2690   -3.1492    0.0000 H       1  UNL1        0.0647
     55 H           6.0010   -3.1492    0.0000 H       1  UNL1        0.0939
     56 H          17.7784    3.9338    0.0000 H       1  UNL1        0.0647
     57 H          17.3477    2.5851    0.0000 H       1  UNL1        0.0648
     58 H          16.8258    4.9811    0.0000 H       1  UNL1        0.0647
     59 H          15.9643    2.2838    0.0000 H       1  UNL1        0.0683
     60 H          15.1982    4.3887    0.0000 H       1  UNL1        0.1084
     61 H           3.8015   -2.7942    0.0000 H       1  UNL1        0.0584
     62 H           3.0044   -2.7942    0.0000 H       1  UNL1        0.0584
     63 H           7.4040   -2.5792    0.0000 H       1  UNL1        0.1109
     64 H           8.2700   -1.0792    0.0000 H       1  UNL1        0.0404
     65 H          18.0792    4.6896    0.0000 H       1  UNL1        0.0584
     66 H          18.2176    5.4746    0.0000 H       1  UNL1        0.0584
     67 H           4.5981   -6.5792    0.0000 H       1  UNL1        0.2100
     68 H           3.4030   -5.8892    0.0000 H       1  UNL1        0.2100
     69 H           6.8671   -5.8892    0.0000 H       1  UNL1        0.2101
     70 H           8.6711   -0.8850    0.0000 H       1  UNL1        0.0387
     71 H           8.2006    0.2057    0.0000 H       1  UNL1        0.0387
     72 H          18.7632    3.7601    0.0000 H       1  UNL1        0.2100
     73 H          17.6897    1.6454    0.0000 H       1  UNL1        0.2100
     74 H          15.3215    1.5178    0.0000 H       1  UNL1        0.2102
     75 H           8.5991   -2.8892    0.0000 H       1  UNL1        0.0596
     76 H           5.4641   -0.4592    0.0000 H       1  UNL1        0.1030
     77 H           2.0000   -3.4592    0.0000 H       1  UNL1        0.2095
     78 H          17.7372    6.5792    0.0000 H       1  UNL1        0.2095
     79 H           9.8637   -1.2942    0.0000 H       1  UNL1        0.0601
     80 H           9.0666   -1.2942    0.0000 H       1  UNL1        0.0601
     81 H          14.7353    2.1664    0.0000 H       1  UNL1        0.0655
     82 H          11.6423    0.3330    0.0000 H       1  UNL1        0.0346
     83 H          12.3912    0.6056    0.0000 H       1  UNL1        0.0346
     84 H          11.0815    1.6718    0.0000 H       1  UNL1        0.0701
     85 H          10.3326    1.3992    0.0000 H       1  UNL1        0.0701
     86 H          11.5445    2.7290    0.0000 H       1  UNL1        0.0658
     87 H          13.6940    0.9254    0.0000 H       1  UNL1        0.0621
     88 H          10.8681   -1.9592    0.0000 H       1  UNL1        0.2098
     89 H          11.8453    4.4347    0.0000 H       1  UNL1        0.2923
     90 H           6.6210    2.2308    0.0000 H       1  UNL1        0.0661
     91 H           6.0010    2.8508    0.0000 H       1  UNL1        0.0661
     92 H           5.3810    2.2308    0.0000 H       1  UNL1        0.0661
@<TRIPOS>BOND
     1     1    23    1
     2     1    24    1
     3    24     2    1
     4    31     2    1
     5     3    27    1
     6     3    29    1
     7    20     4    1
     8     4    67    1
     9    21     5    1
    10     5    68    1
    11    22     6    1
    12     6    69    1
    13    25     7    1
    14     7    72    1
    15    26     8    1
    16     8    73    1
    17    29     9    1
    18     9    39    1
    19    10    31    1
    20    10    38    1
    21    28    11    1
    22    11    74    1
    23    12    30    1
    24    12    77    1
    25    13    34    1
    26    13    78    1
    27    14    40    1
    28    14    47    1
    29    15    41    1
    30    15    50    1
    31    16    42    1
    32    16    88    1
    33    17    40    2
    34    18    41    2
    35    19    43    1
    36    19    89    1
    37    20    21    1
    38    20    22    1
    39    20    51    1
    40    21    23    1
    41    21    52    1
    42    22    24    1
    43    22    53    1
    44    23    30    1
    45    23    54    1
    46    24    55    1
    47    25    26    1
    48    25    27    1
    49    25    56    1
    50    26    28    1
    51    26    57    1
    52    27    34    1
    53    27    58    1
    54    28    29    1
    55    28    59    1
    56    29    60    1
    57    30    61    1
    58    30    62    1
    59    31    33    1
    60    31    63    1
    61    32    33    1
    62    32    35    1
    63    32    36    1
    64    32    64    1
    65    33    37    2
    66    34    65    1
    67    34    66    1
    68    35    38    2
    69    35    41    1
    70    36    40    1
    71    36    70    1
    72    36    71    1
    73    37    42    1
    74    37    75    1
    75    38    76    1
    76    39    43   ar
    77    39    44   ar
    78    42    79    1
    79    42    80    1
    80    43    48   ar
    81    44    49   ar
    82    44    81    1
    83    45    46    1
    84    45    48   ar
    85    45    49   ar
    86    46    47    1
    87    46    82    1
    88    46    83    1
    89    47    84    1
    90    47    85    1
    91    48    86    1
    92    49    87    1
    93    50    90    1
    94    50    91    1
    95    50    92    1
