@<TRIPOS>MOLECULE
IMPHY002414
 54 58 0 0 0
SMALL
GASTEIGER

@<TRIPOS>ATOM
      1 O           5.9457    0.9405    0.0000 O.3     1  UNL1       -0.3672
      2 O           6.5734   -1.9063    0.0000 O.3     1  UNL1       -0.4587
      3 O           7.5100    0.3177    0.0000 O.3     1  UNL1       -0.3817
      4 O           3.9271    1.6441    0.0000 O.3     1  UNL1       -0.3888
      5 O           5.6591    2.6441    0.0000 O.3     1  UNL1       -0.3863
      6 O           8.2869    0.1796    0.0000 O.3     1  UNL1       -0.3781
      7 O           2.9755    1.2011    0.0000 O.3     1  UNL1       -0.3872
      8 O           8.3349   -1.8589    0.0000 O.2     1  UNL1       -0.2478
      9 C           5.6591   -0.3559    0.0000 C.3     1  UNL1        0.0713
     10 C           4.7931    0.1441    0.0000 C.3     1  UNL1        0.0101
     11 C           6.5251    0.1441    0.0000 C.3     1  UNL1        0.1444
     12 C           3.8831   -0.3628    0.0000 C.3     1  UNL1        0.0104
     13 C           6.5251    1.1441    0.0000 C.3     1  UNL1        0.1270
     14 C           5.6752   -1.3974    0.0000 C.3     1  UNL1        0.1146
     15 C           4.7931    1.1441    0.0000 C.3     1  UNL1        0.0881
     16 C           5.5457    0.2477    0.0000 C.3     1  UNL1        0.0608
     17 C           5.6591    1.6441    0.0000 C.3     1  UNL1        0.1127
     18 C           3.8751   -1.4044    0.0000 C.3     1  UNL1       -0.0047
     19 C           4.7771   -1.9252    0.0000 C.3     1  UNL1       -0.0075
     20 C           7.4349   -0.3439    0.0000 C.3     1  UNL1        0.1839
     21 C           2.9562    0.2013    0.0000 C.3     1  UNL1        0.0799
     22 C           3.5483    0.5795    0.0000 C.3     1  UNL1       -0.0560
     23 C           7.0251    2.0101    0.0000 C.3     1  UNL1       -0.0304
     24 C           7.4592   -1.3760    0.0000 C.2     1  UNL1        0.3393
     25 C           2.9396   -1.9541    0.0000 C.2     1  UNL1       -0.0508
     26 C           2.0084   -0.3266    0.0000 C.2     1  UNL1       -0.0551
     27 C           2.0000   -1.4116    0.0000 C.2     1  UNL1       -0.0603
     28 C           2.9435   -2.9541    0.0000 C.2     1  UNL1       -0.0952
     29 H           4.0570    0.5691    0.0000 H       1  UNL1        0.0341
     30 H           5.6819   -2.2474    0.0000 H       1  UNL1        0.0741
     31 H           4.7931    1.7641    0.0000 H       1  UNL1        0.0623
     32 H           5.1186    0.6971    0.0000 H       1  UNL1        0.0568
     33 H           4.9938   -0.0347    0.0000 H       1  UNL1        0.0568
     34 H           6.1960    1.9541    0.0000 H       1  UNL1        0.0649
     35 H           3.8783   -2.2544    0.0000 H       1  UNL1        0.0356
     36 H           4.3798   -2.4012    0.0000 H       1  UNL1        0.0307
     37 H           5.1781   -2.3981    0.0000 H       1  UNL1        0.0307
     38 H           7.9796   -0.6402    0.0000 H       1  UNL1        0.0741
     39 H           2.4248    0.5206    0.0000 H       1  UNL1        0.0643
     40 H           4.1326    0.7871    0.0000 H       1  UNL1        0.0236
     41 H           3.3408    1.1638    0.0000 H       1  UNL1        0.0236
     42 H           2.9641    0.3720    0.0000 H       1  UNL1        0.0236
     43 H           7.5621    1.7001    0.0000 H       1  UNL1        0.0259
     44 H           7.3351    2.5470    0.0000 H       1  UNL1        0.0259
     45 H           6.4882    2.3201    0.0000 H       1  UNL1        0.0259
     46 H           7.7220    0.9003    0.0000 H       1  UNL1        0.2104
     47 H           3.9271    2.2641    0.0000 H       1  UNL1        0.2099
     48 H           1.4750   -0.0104    0.0000 H       1  UNL1        0.0598
     49 H           6.1960    2.9541    0.0000 H       1  UNL1        0.2100
     50 H           1.4619   -1.7195    0.0000 H       1  UNL1        0.0618
     51 H           8.8322   -0.1156    0.0000 H       1  UNL1        0.2106
     52 H           2.4447    1.5214    0.0000 H       1  UNL1        0.2102
     53 H           2.4078   -3.2662    0.0000 H       1  UNL1        0.0538
     54 H           3.4816   -3.2620    0.0000 H       1  UNL1        0.0538
@<TRIPOS>BOND
     1     1    13    1
     2     1    16    1
     3     2    14    1
     4     2    24    1
     5    11     3    1
     6     3    46    1
     7    15     4    1
     8     4    47    1
     9    17     5    1
    10     5    49    1
    11    20     6    1
    12     6    51    1
    13    21     7    1
    14     7    52    1
    15     8    24    2
    16     9    10    1
    17     9    11    1
    18     9    14    1
    19     9    16    1
    20    10    12    1
    21    10    15    1
    22    10    29    1
    23    11    13    1
    24    11    20    1
    25    12    18    1
    26    12    21    1
    27    12    22    1
    28    13    17    1
    29    13    23    1
    30    14    19    1
    31    14    30    1
    32    15    17    1
    33    15    31    1
    34    16    32    1
    35    16    33    1
    36    17    34    1
    37    18    19    1
    38    18    25    1
    39    18    35    1
    40    19    36    1
    41    19    37    1
    42    20    24    1
    43    20    38    1
    44    21    26    1
    45    21    39    1
    46    22    40    1
    47    22    41    1
    48    22    42    1
    49    23    43    1
    50    23    44    1
    51    23    45    1
    52    25    27    1
    53    25    28    2
    54    26    27    2
    55    26    48    1
    56    27    50    1
    57    28    53    1
    58    28    54    1
