@<TRIPOS>MOLECULE
IMPHY002324
 26 30 0 0 0
SMALL
GASTEIGER

@<TRIPOS>ATOM
      1 C           2.6018    1.8241    0.0000 C.ar    1  UNL1        0.0272
      2 C           1.6066    1.7218    0.0000 C.ar    1  UNL1        0.1734
      3 C           3.1902    1.0157    0.0000 C.ar    1  UNL1       -0.0188
      4 C           2.6018    2.8244    0.0000 C.3     1  UNL1        0.1020
      5 C           1.1999    0.8059    0.0000 C.ar    1  UNL1        0.1761
      6 O           0.8647    2.3895    0.0000 O.3     1  UNL1       -0.4349
      7 C           4.1419    0.7061    0.0000 C.3     1  UNL1        0.0636
      8 C           2.7809    0.1023    0.0000 C.ar    1  UNL1       -0.0011
      9 N           3.1902    3.6354    0.0000 N.3     1  UNL1       -0.2674
     10 C           1.7883    0.0000    0.0000 C.ar    1  UNL1        0.0398
     11 O           0.2047    0.9108    0.0000 O.3     1  UNL1       -0.4346
     12 C           0.0000    1.8906    0.0000 C.3     1  UNL1        0.4294
     13 C           5.0936    1.0157    0.0000 C.3     1  UNL1        0.1784
     14 C           4.1419    3.9424    0.0000 C.3     1  UNL1        0.0771
     15 C           2.6018    4.4438    0.0000 C.3     1  UNL1        0.0899
     16 C           5.6795    1.8241    0.0000 C.ar    1  UNL1        0.0073
     17 O           5.6795    0.2072    0.0000 O.3     1  UNL1       -0.2179
     18 C           5.0936    3.6354    0.0000 C.3     1  UNL1        0.0435
     19 C           5.6795    2.8244    0.0000 C.ar    1  UNL1       -0.0192
     20 C           6.5468    1.3252    0.0000 C.ar    1  UNL1        0.0380
     21 C           6.5468    3.3233    0.0000 C.ar    1  UNL1        0.0357
     22 C           7.4115    1.8241    0.0000 C.ar    1  UNL1        0.1762
     23 C           7.4115    2.8244    0.0000 C.ar    1  UNL1        0.1761
     24 O           8.3632    1.5171    0.0000 O.3     1  UNL1       -0.4346
     25 O           8.3632    3.1340    0.0000 O.3     1  UNL1       -0.4346
     26 C           8.9542    2.3230    0.0000 C.3     1  UNL1        0.4294
@<TRIPOS>BOND
     1     1     2   ar
     2     1     3   ar
     3     1     4    1
     4     2     5   ar
     5     2     6    1
     6     3     7    1
     7     3     8   ar
     8     4     9    1
     9     5    10   ar
    10     5    11    1
    11     6    12    1
    12     7    13    1
    13     8    10   ar
    14     9    14    1
    15     9    15    1
    16    11    12    1
    17    13    16    1
    18    13    17    1
    19    14    18    1
    20    16    19   ar
    21    16    20   ar
    22    18    19    1
    23    19    21   ar
    24    20    22   ar
    25    21    23   ar
    26    22    23   ar
    27    22    24    1
    28    23    25    1
    29    24    26    1
    30    25    26    1
