@<TRIPOS>MOLECULE
IMPHY008059
 52 55 0 0 0
SMALL
GASTEIGER

@<TRIPOS>ATOM
      1 O           7.4783   -1.1751    0.0000 O.3     1  UNL1       -0.4526
      2 O           7.4783   -2.7846    0.0000 O.3     1  UNL1       -0.4526
      3 O           7.3815    0.0147    0.0000 O.3     1  UNL1       -0.4914
      4 O           7.4046    2.0146    0.0000 O.3     1  UNL1       -0.4915
      5 N           3.0000   -1.4590    0.0000 N.4     1  UNL1        0.2449
      6 C           3.9061   -0.9452    0.0000 C.3     1  UNL1        0.0107
      7 C           3.0000   -2.5006    0.0000 C.3     1  UNL1       -0.0259
      8 C           4.8000   -1.4798    0.0000 C.ar    1  UNL1        0.0076
      9 C           3.9061   -3.0145    0.0000 C.3     1  UNL1        0.0133
     10 C           3.9176    0.0548    0.0000 C.3     1  UNL1        0.0201
     11 C           4.8000   -2.4798    0.0000 C.ar    1  UNL1       -0.0302
     12 C           2.0000   -1.4552    0.0000 C.3     1  UNL1       -0.0409
     13 C           2.5033   -0.5911    0.0000 C.3     1  UNL1       -0.0409
     14 C           5.6660   -0.9798    0.0000 C.ar    1  UNL1       -0.0074
     15 C           5.6660   -2.9798    0.0000 C.ar    1  UNL1       -0.0123
     16 C           4.7894    0.5447    0.0000 C.ar    1  UNL1       -0.0380
     17 C           6.5320   -1.4798    0.0000 C.ar    1  UNL1        0.1667
     18 C           6.5320   -2.4798    0.0000 C.ar    1  UNL1        0.1665
     19 C           5.6496    0.0347    0.0000 C.ar    1  UNL1       -0.0129
     20 C           4.8009    1.5446    0.0000 C.ar    1  UNL1       -0.0547
     21 C           8.0619   -1.9798    0.0000 C.3     1  UNL1        0.2332
     22 C           6.5213    0.5247    0.0000 C.ar    1  UNL1        0.1617
     23 C           5.6727    2.0346    0.0000 C.ar    1  UNL1       -0.0160
     24 C           6.5329    1.5246    0.0000 C.ar    1  UNL1        0.1615
     25 C           8.2532    0.5047    0.0000 C.3     1  UNL1        0.0790
     26 C           7.4162    3.0145    0.0000 C.3     1  UNL1        0.0790
     27 H           3.3721   -0.6300    0.0000 H       1  UNL1        0.0908
     28 H           2.3891   -2.3946    0.0000 H       1  UNL1        0.0818
     29 H           2.7909   -3.0844    0.0000 H       1  UNL1        0.0818
     30 H           3.5124   -3.4935    0.0000 H       1  UNL1        0.0365
     31 H           4.3107   -3.4843    0.0000 H       1  UNL1        0.0365
     32 H           3.7123    0.6398    0.0000 H       1  UNL1        0.0372
     33 H           3.3058   -0.0458    0.0000 H       1  UNL1        0.0372
     34 H           3.0415   -0.2831    0.0000 H       1  UNL1        0.0778
     35 H           2.0024   -0.8352    0.0000 H       1  UNL1        0.0778
     36 H           1.3800   -1.4528    0.0000 H       1  UNL1        0.0778
     37 H           1.9976   -2.0752    0.0000 H       1  UNL1        0.0778
     38 H           2.1954   -0.0529    0.0000 H       1  UNL1        0.0778
     39 H           1.9652   -0.8990    0.0000 H       1  UNL1        0.0778
     40 H           5.6660   -0.3598    0.0000 H       1  UNL1        0.0660
     41 H           5.6660   -3.5998    0.0000 H       1  UNL1        0.0658
     42 H           5.6424   -0.5852    0.0000 H       1  UNL1        0.0658
     43 H           4.2676    1.8608    0.0000 H       1  UNL1        0.0621
     44 H           8.5228   -2.3946    0.0000 H       1  UNL1        0.1166
     45 H           8.5228   -1.5651    0.0000 H       1  UNL1        0.1166
     46 H           5.6798    2.6546    0.0000 H       1  UNL1        0.0655
     47 H           8.5570   -0.0358    0.0000 H       1  UNL1        0.0660
     48 H           8.7937    0.8084    0.0000 H       1  UNL1        0.0660
     49 H           7.9495    1.0451    0.0000 H       1  UNL1        0.0660
     50 H           8.0361    3.0073    0.0000 H       1  UNL1        0.0660
     51 H           7.4234    3.6345    0.0000 H       1  UNL1        0.0660
     52 H           6.7962    3.0217    0.0000 H       1  UNL1        0.0660
@<TRIPOS>UNITY_ATOM_ATTR
5 1
charge 1
@<TRIPOS>BOND
     1     1    17    1
     2     1    21    1
     3     2    18    1
     4     2    21    1
     5     3    22    1
     6     3    25    1
     7     4    24    1
     8     4    26    1
     9     5     6    1
    10     5     7    1
    11     5    12    1
    12     5    13    1
    13     6     8    1
    14     6    10    1
    15     6    27    1
    16     7     9    1
    17     7    28    1
    18     7    29    1
    19     8    11   ar
    20     8    14   ar
    21     9    11    1
    22     9    30    1
    23     9    31    1
    24    10    16    1
    25    10    32    1
    26    10    33    1
    27    11    15   ar
    28    12    35    1
    29    12    36    1
    30    12    37    1
    31    13    34    1
    32    13    38    1
    33    13    39    1
    34    14    17   ar
    35    14    40    1
    36    15    18   ar
    37    15    41    1
    38    16    19   ar
    39    16    20   ar
    40    17    18   ar
    41    19    22   ar
    42    19    42    1
    43    20    23   ar
    44    20    43    1
    45    21    44    1
    46    21    45    1
    47    22    24   ar
    48    23    24   ar
    49    23    46    1
    50    25    47    1
    51    25    48    1
    52    25    49    1
    53    26    50    1
    54    26    51    1
    55    26    52    1
