@<TRIPOS>MOLECULE
IMPHY016517
 38 40 0 0 0
SMALL
GASTEIGER

@<TRIPOS>ATOM
      1 O           2.0000    0.0122    0.0000 O.2     1  UNL1       -0.2965
      2 C           4.5633   -0.2966    0.0000 C.3     1  UNL1       -0.0017
      3 C           5.3723    0.2912    0.0000 C.3     1  UNL1       -0.0067
      4 C           3.7543    0.2912    0.0000 C.3     1  UNL1        0.0535
      5 C           4.2537   -1.2412    0.0000 C.3     1  UNL1       -0.0296
      6 C           4.8730   -1.2412    0.0000 C.3     1  UNL1       -0.0451
      7 C           6.1750   -0.2952    0.0000 C.3     1  UNL1       -0.0436
      8 C           5.8670   -1.2404    0.0000 C.3     1  UNL1       -0.0517
      9 C           4.0633    1.2422    0.0000 C.2     1  UNL1       -0.0625
     10 C           5.0633    1.2422    0.0000 C.2     1  UNL1       -0.0776
     11 C           3.2596   -1.2404    0.0000 C.3     1  UNL1        0.0099
     12 C           2.9516   -0.2952    0.0000 C.2     1  UNL1        0.1440
     13 C           6.1814    0.8790    0.0000 C.3     1  UNL1       -0.0555
     14 C           2.9453    0.8790    0.0000 C.3     1  UNL1       -0.0485
     15 C           4.8401   -2.0513    0.0000 C.3     1  UNL1       -0.0615
     16 C           3.4755    2.0513    0.0000 C.3     1  UNL1       -0.0428
     17 H           3.9715   -1.7933    0.0000 H       1  UNL1        0.0308
     18 H           4.2668   -1.3714    0.0000 H       1  UNL1        0.0271
     19 H           4.9386   -1.8577    0.0000 H       1  UNL1        0.0271
     20 H           6.7411   -0.5482    0.0000 H       1  UNL1        0.0274
     21 H           6.4861    0.2411    0.0000 H       1  UNL1        0.0274
     22 H           5.8024   -1.8570    0.0000 H       1  UNL1        0.0266
     23 H           6.4734   -1.3694    0.0000 H       1  UNL1        0.0266
     24 H           5.4277    1.7438    0.0000 H       1  UNL1        0.0577
     25 H           2.6532   -1.3694    0.0000 H       1  UNL1        0.0345
     26 H           3.3242   -1.8570    0.0000 H       1  UNL1        0.0345
     27 H           6.5458    0.3774    0.0000 H       1  UNL1        0.0238
     28 H           6.6829    1.2434    0.0000 H       1  UNL1        0.0238
     29 H           5.8169    1.3806    0.0000 H       1  UNL1        0.0238
     30 H           3.3097    1.3806    0.0000 H       1  UNL1        0.0242
     31 H           2.4437    1.2434    0.0000 H       1  UNL1        0.0242
     32 H           2.5808    0.3774    0.0000 H       1  UNL1        0.0242
     33 H           4.3378   -2.4148    0.0000 H       1  UNL1        0.0233
     34 H           5.2036   -2.5535    0.0000 H       1  UNL1        0.0233
     35 H           5.3423   -1.6877    0.0000 H       1  UNL1        0.0233
     36 H           3.9771    2.4157    0.0000 H       1  UNL1        0.0275
     37 H           3.1111    2.5528    0.0000 H       1  UNL1        0.0275
     38 H           2.9739    1.6868    0.0000 H       1  UNL1        0.0275
@<TRIPOS>BOND
     1     1    12    2
     2     2     3    1
     3     2     4    1
     4     2     5    1
     5     2     6    1
     6     3     7    1
     7     3    10    1
     8     3    13    1
     9     4     9    1
    10     4    12    1
    11     4    14    1
    12     5    11    1
    13     5    15    1
    14     5    17    1
    15     6     8    1
    16     6    18    1
    17     6    19    1
    18     7     8    1
    19     7    20    1
    20     7    21    1
    21     8    22    1
    22     8    23    1
    23     9    10    2
    24     9    16    1
    25    10    24    1
    26    11    12    1
    27    11    25    1
    28    11    26    1
    29    13    27    1
    30    13    28    1
    31    13    29    1
    32    14    30    1
    33    14    31    1
    34    14    32    1
    35    15    33    1
    36    15    34    1
    37    15    35    1
    38    16    36    1
    39    16    37    1
    40    16    38    1
