@<TRIPOS>MOLECULE
IMPHY017772
 34 34 0 0 0
SMALL
GASTEIGER

@<TRIPOS>ATOM
      1 O           3.3660    1.7500    0.0000 O.3     1  UNL1       -0.4585
      2 O           4.8660    0.8840    0.0000 O.2     1  UNL1       -0.2511
      3 C           2.8660    0.8840    0.0000 C.3     1  UNL1        0.1113
      4 C           2.0000    0.3840    0.0000 C.3     1  UNL1       -0.0094
      5 C           3.7320    0.3840    0.0000 C.3     1  UNL1       -0.0094
      6 C           2.0000   -0.6160    0.0000 C.3     1  UNL1       -0.0279
      7 C           3.7320   -0.6160    0.0000 C.3     1  UNL1       -0.0279
      8 C           2.8660   -1.1160    0.0000 C.2     1  UNL1       -0.0706
      9 C           2.3660    1.7500    0.0000 C.3     1  UNL1       -0.0248
     10 C           2.8660   -2.1160    0.0000 C.2     1  UNL1       -0.0765
     11 C           2.0000   -2.6160    0.0000 C.3     1  UNL1       -0.0438
     12 C           3.7320   -2.6160    0.0000 C.3     1  UNL1       -0.0438
     13 C           4.3660    1.7500    0.0000 C.2     1  UNL1        0.3045
     14 C           4.8660    2.6160    0.0000 C.3     1  UNL1        0.0333
     15 H           1.7880    0.9666    0.0000 H       1  UNL1        0.0307
     16 H           1.3894    0.2763    0.0000 H       1  UNL1        0.0307
     17 H           4.3426    0.2763    0.0000 H       1  UNL1        0.0307
     18 H           3.9441    0.9666    0.0000 H       1  UNL1        0.0307
     19 H           1.3894   -0.5084    0.0000 H       1  UNL1        0.0311
     20 H           1.7880   -1.1986    0.0000 H       1  UNL1        0.0311
     21 H           3.9441   -1.1986    0.0000 H       1  UNL1        0.0311
     22 H           4.3426   -0.5084    0.0000 H       1  UNL1        0.0311
     23 H           2.9030    2.0600    0.0000 H       1  UNL1        0.0268
     24 H           2.0560    2.2869    0.0000 H       1  UNL1        0.0268
     25 H           1.8291    1.4400    0.0000 H       1  UNL1        0.0268
     26 H           1.6900   -2.0791    0.0000 H       1  UNL1        0.0274
     27 H           1.4631   -2.9260    0.0000 H       1  UNL1        0.0274
     28 H           2.3100   -3.1530    0.0000 H       1  UNL1        0.0274
     29 H           3.4220   -3.1530    0.0000 H       1  UNL1        0.0274
     30 H           4.2690   -2.9260    0.0000 H       1  UNL1        0.0274
     31 H           4.0420   -2.0791    0.0000 H       1  UNL1        0.0274
     32 H           5.4030    2.3060    0.0000 H       1  UNL1        0.0342
     33 H           5.1760    3.1530    0.0000 H       1  UNL1        0.0342
     34 H           4.3291    2.9260    0.0000 H       1  UNL1        0.0342
@<TRIPOS>BOND
     1     1     3    1
     2     1    13    1
     3     2    13    2
     4     3     4    1
     5     3     5    1
     6     3     9    1
     7     4     6    1
     8     4    15    1
     9     4    16    1
    10     5     7    1
    11     5    17    1
    12     5    18    1
    13     6     8    1
    14     6    19    1
    15     6    20    1
    16     7     8    1
    17     7    21    1
    18     7    22    1
    19     8    10    2
    20     9    23    1
    21     9    24    1
    22     9    25    1
    23    10    11    1
    24    10    12    1
    25    11    26    1
    26    11    27    1
    27    11    28    1
    28    12    29    1
    29    12    30    1
    30    12    31    1
    31    13    14    1
    32    14    32    1
    33    14    33    1
    34    14    34    1
