@<TRIPOS>MOLECULE
IMPHY000647
 36 40 0 0 0
SMALL
GASTEIGER

@<TRIPOS>ATOM
      1 O           8.8411   -0.0766    0.0000 O.2     1  UNL1       -0.2706
      2 O           2.6079   -0.1993    0.0000 O.3     1  UNL1       -0.4526
      3 O           2.6079   -1.8757    0.0000 O.3     1  UNL1       -0.4526
      4 N           7.1256   -0.5375    0.0000 N.am    1  UNL1       -0.2839
      5 C           6.2596   -0.0375    0.0000 C.3     1  UNL1        0.0888
      6 C           5.2440    0.1648    0.0000 C.3     1  UNL1       -0.0195
      7 C           5.3935   -0.5375    0.0000 C.ar    1  UNL1       -0.0126
      8 C           6.4688    0.9343    0.0000 C.2     1  UNL1       -0.0149
      9 C           7.1256   -1.5375    0.0000 C.3     1  UNL1        0.0201
     10 C           5.3935   -1.5375    0.0000 C.ar    1  UNL1       -0.0367
     11 C           6.2596   -2.0375    0.0000 C.3     1  UNL1       -0.0113
     12 C           4.7664    1.2262    0.0000 C.3     1  UNL1       -0.0319
     13 C           7.8626    0.1296    0.0000 C.2     1  UNL1        0.2407
     14 C           7.4575    1.0374    0.0000 C.2     1  UNL1        0.0059
     15 C           6.1666    1.9247    0.0000 C.2     1  UNL1       -0.0600
     16 C           4.4996   -0.0028    0.0000 C.ar    1  UNL1       -0.0103
     17 C           5.3086    2.0722    0.0000 C.2     1  UNL1       -0.0836
     18 C           4.4996   -2.0722    0.0000 C.ar    1  UNL1       -0.0126
     19 C           3.5935   -0.5167    0.0000 C.ar    1  UNL1        0.1666
     20 C           3.5935   -1.5583    0.0000 C.ar    1  UNL1        0.1665
     21 C           2.0000   -1.0375    0.0000 C.3     1  UNL1        0.2332
     22 H           4.6385    0.0317    0.0000 H       1  UNL1        0.0296
     23 H           5.2502   -0.4552    0.0000 H       1  UNL1        0.0296
     24 H           7.3376   -2.1201    0.0000 H       1  UNL1        0.0468
     25 H           7.7362   -1.4298    0.0000 H       1  UNL1        0.0468
     26 H           5.8610   -2.5124    0.0000 H       1  UNL1        0.0328
     27 H           6.6581   -2.5124    0.0000 H       1  UNL1        0.0328
     28 H           4.3181    1.6545    0.0000 H       1  UNL1        0.0308
     29 H           4.2602    0.8682    0.0000 H       1  UNL1        0.0308
     30 H           7.7675    1.5743    0.0000 H       1  UNL1        0.0673
     31 H           6.5765    2.3898    0.0000 H       1  UNL1        0.0618
     32 H           4.5068    0.6171    0.0000 H       1  UNL1        0.0659
     33 H           5.0585    2.6394    0.0000 H       1  UNL1        0.0572
     34 H           4.5068   -2.6921    0.0000 H       1  UNL1        0.0658
     35 H           1.5391   -0.6228    0.0000 H       1  UNL1        0.1166
     36 H           1.5391   -1.4522    0.0000 H       1  UNL1        0.1166
@<TRIPOS>BOND
     1     1    13    2
     2     2    19    1
     3     2    21    1
     4     3    20    1
     5     3    21    1
     6     4     5    1
     7     4     9    1
     8     4    13   am
     9     5     6    1
    10     5     7    1
    11     5     8    1
    12     6    12    1
    13     6    22    1
    14     6    23    1
    15     7    10   ar
    16     7    16   ar
    17     8    14    2
    18     8    15    1
    19     9    11    1
    20     9    24    1
    21     9    25    1
    22    10    11    1
    23    10    18   ar
    24    11    26    1
    25    11    27    1
    26    12    17    1
    27    12    28    1
    28    12    29    1
    29    13    14    1
    30    14    30    1
    31    15    17    2
    32    15    31    1
    33    16    19   ar
    34    16    32    1
    35    17    33    1
    36    18    20   ar
    37    18    34    1
    38    19    20   ar
    39    21    35    1
    40    21    36    1
