@<TRIPOS>MOLECULE
IMPHY011310
 59 62 0 0 0
SMALL
GASTEIGER

@<TRIPOS>ATOM
      1 O           4.6660   -3.5223    0.0000 O.3     1  UNL1       -0.4947
      2 O           2.9340   -0.5223    0.0000 O.3     1  UNL1       -0.5060
      3 O           4.6660    3.4777    0.0000 O.3     1  UNL1       -0.4944
      4 O           2.9176    3.5123    0.0000 O.3     1  UNL1       -0.4944
      5 N           7.3321   -2.0431    0.0000 N.3     1  UNL1       -0.3066
      6 C           7.3321   -1.0015    0.0000 C.3     1  UNL1        0.0093
      7 C           6.4260   -2.5570    0.0000 C.3     1  UNL1        0.0340
      8 C           6.4260   -0.4876    0.0000 C.3     1  UNL1       -0.0113
      9 C           5.5321   -1.0223    0.0000 C.ar    1  UNL1       -0.0266
     10 C           5.5321   -2.0223    0.0000 C.ar    1  UNL1        0.0149
     11 C           4.6660   -0.5223    0.0000 C.ar    1  UNL1        0.0281
     12 C           4.6660   -2.5223    0.0000 C.ar    1  UNL1        0.1285
     13 C           8.1962   -0.4981    0.0000 C.3     1  UNL1       -0.0494
     14 C           6.4144   -3.5569    0.0000 C.3     1  UNL1       -0.0454
     15 C           4.6660    0.4777    0.0000 C.ar    1  UNL1       -0.0032
     16 C           3.8000   -1.0223    0.0000 C.ar    1  UNL1        0.1283
     17 C           3.8000   -2.0223    0.0000 C.ar    1  UNL1        0.0225
     18 C           3.8000    0.9777    0.0000 C.ar    1  UNL1       -0.0028
     19 C           5.5321    0.9777    0.0000 C.ar    1  UNL1       -0.0386
     20 C           3.8000    1.9777    0.0000 C.ar    1  UNL1        0.0659
     21 C           5.5321    1.9777    0.0000 C.ar    1  UNL1       -0.0157
     22 C           4.6660    2.4777    0.0000 C.ar    1  UNL1        0.1316
     23 C           2.9061    0.4431    0.0000 C.ar    1  UNL1       -0.0531
     24 C           6.3981    0.4777    0.0000 C.3     1  UNL1       -0.0390
     25 C           2.9061    2.5124    0.0000 C.ar    1  UNL1        0.1313
     26 C           2.0000    0.9569    0.0000 C.ar    1  UNL1       -0.0577
     27 C           2.0000    1.9985    0.0000 C.ar    1  UNL1       -0.0192
     28 C           3.8000   -4.0223    0.0000 C.3     1  UNL1        0.0788
     29 C           5.5321    3.9777    0.0000 C.3     1  UNL1        0.0788
     30 C           2.0574    4.0223    0.0000 C.3     1  UNL1        0.0788
     31 H           7.8696   -1.3104    0.0000 H       1  UNL1        0.0461
     32 H           6.9599   -2.8721    0.0000 H       1  UNL1        0.0508
     33 H           6.8196   -0.0086    0.0000 H       1  UNL1        0.0328
     34 H           6.0214   -0.0178    0.0000 H       1  UNL1        0.0328
     35 H           7.8678   -2.3552    0.0000 H       1  UNL1        0.1228
     36 H           8.5082   -1.0339    0.0000 H       1  UNL1        0.0245
     37 H           8.7319   -0.1861    0.0000 H       1  UNL1        0.0245
     38 H           7.8841    0.0376    0.0000 H       1  UNL1        0.0245
     39 H           5.7945   -3.5497    0.0000 H       1  UNL1        0.0248
     40 H           6.4073   -4.1768    0.0000 H       1  UNL1        0.0248
     41 H           7.0344   -3.5640    0.0000 H       1  UNL1        0.0248
     42 H           3.2631   -2.3323    0.0000 H       1  UNL1        0.0691
     43 H           6.0690    2.2877    0.0000 H       1  UNL1        0.0657
     44 H           2.9132   -0.1769    0.0000 H       1  UNL1        0.0624
     45 H           6.0881   -0.0592    0.0000 H       1  UNL1        0.0278
     46 H           6.9350    0.1677    0.0000 H       1  UNL1        0.0278
     47 H           6.7081    1.0146    0.0000 H       1  UNL1        0.0278
     48 H           2.3970   -0.8323    0.0000 H       1  UNL1        0.2922
     49 H           1.4643    0.6448    0.0000 H       1  UNL1        0.0619
     50 H           1.4643    2.3106    0.0000 H       1  UNL1        0.0654
     51 H           3.4900   -3.4854    0.0000 H       1  UNL1        0.0660
     52 H           3.2631   -4.3323    0.0000 H       1  UNL1        0.0660
     53 H           4.1100   -4.5592    0.0000 H       1  UNL1        0.0660
     54 H           5.8421    3.4408    0.0000 H       1  UNL1        0.0660
     55 H           6.0690    4.2877    0.0000 H       1  UNL1        0.0660
     56 H           5.2221    4.5146    0.0000 H       1  UNL1        0.0660
     57 H           2.3736    4.5556    0.0000 H       1  UNL1        0.0660
     58 H           1.5241    4.3385    0.0000 H       1  UNL1        0.0660
     59 H           1.7413    3.4890    0.0000 H       1  UNL1        0.0660
@<TRIPOS>BOND
     1     1    12    1
     2     1    28    1
     3     2    16    1
     4     2    48    1
     5     3    22    1
     6     3    29    1
     7     4    25    1
     8     4    30    1
     9     5     6    1
    10     5     7    1
    11     5    35    1
    12     6     8    1
    13     6    13    1
    14     6    31    1
    15     7    10    1
    16     7    14    1
    17     7    32    1
    18     8     9    1
    19     8    33    1
    20     8    34    1
    21     9    10   ar
    22     9    11   ar
    23    10    12   ar
    24    11    15    1
    25    11    16   ar
    26    12    17   ar
    27    13    36    1
    28    13    37    1
    29    13    38    1
    30    14    39    1
    31    14    40    1
    32    14    41    1
    33    15    18   ar
    34    15    19   ar
    35    16    17   ar
    36    17    42    1
    37    18    20   ar
    38    18    23   ar
    39    19    21   ar
    40    19    24    1
    41    20    22   ar
    42    20    25   ar
    43    21    22   ar
    44    21    43    1
    45    23    26   ar
    46    23    44    1
    47    24    45    1
    48    24    46    1
    49    24    47    1
    50    25    27   ar
    51    26    27   ar
    52    26    49    1
    53    27    50    1
    54    28    51    1
    55    28    52    1
    56    28    53    1
    57    29    54    1
    58    29    55    1
    59    29    56    1
    60    30    57    1
    61    30    58    1
    62    30    59    1
