@<TRIPOS>MOLECULE
IMPHY002601
 50 53 0 0 0
SMALL
GASTEIGER

@<TRIPOS>ATOM
      1 O           3.9435   -3.9148    0.0000 O.3     1  UNL1       -0.3837
      2 O           5.4934    2.4490    0.0000 O.3     1  UNL1       -0.4533
      3 O           5.7468   -2.8551    0.0000 O.2     1  UNL1       -0.2946
      4 O           5.5883    4.2228    0.0000 O.2     1  UNL1       -0.2453
      5 C           3.9064   -0.7596    0.0000 C.3     1  UNL1       -0.0153
      6 C           3.0084   -1.2874    0.0000 C.3     1  UNL1       -0.0265
      7 C           3.8903    0.2819    0.0000 C.3     1  UNL1       -0.0099
      8 C           3.0000   -2.3724    0.0000 C.3     1  UNL1        0.0013
      9 C           2.1063   -0.7666    0.0000 C.3     1  UNL1       -0.0454
     10 C           4.8583   -1.2803    0.0000 C.3     1  UNL1        0.0147
     11 C           3.0243    0.7819    0.0000 C.2     1  UNL1       -0.0654
     12 C           3.9396   -2.9148    0.0000 C.3     1  UNL1        0.1183
     13 C           2.1143    0.2750    0.0000 C.3     1  UNL1       -0.0309
     14 C           4.7564    0.7819    0.0000 C.3     1  UNL1       -0.0043
     15 C           4.7685   -0.2530    0.0000 C.3     1  UNL1       -0.0584
     16 C           4.8750   -2.3651    0.0000 C.2     1  UNL1        0.1626
     17 C           2.4967   -3.2364    0.0000 C.3     1  UNL1       -0.0568
     18 C           2.0000   -2.3685    0.0000 C.3     1  UNL1       -0.0568
     19 C           4.7564    1.7819    0.0000 C.3     1  UNL1        0.1294
     20 C           3.0243    1.7819    0.0000 C.2     1  UNL1       -0.0551
     21 C           3.8903    2.2819    0.0000 C.2     1  UNL1        0.0024
     22 C           4.0995    3.2537    0.0000 C.2     1  UNL1        0.0402
     23 C           5.0883    3.3567    0.0000 C.2     1  UNL1        0.3358
     24 C           3.4317    3.9980    0.0000 C.3     1  UNL1       -0.0326
     25 H           2.2706   -1.7096    0.0000 H       1  UNL1        0.0313
     26 H           4.6297   -0.1374    0.0000 H       1  UNL1        0.0352
     27 H           1.4963   -0.6558    0.0000 H       1  UNL1        0.0271
     28 H           1.8927   -1.3486    0.0000 H       1  UNL1        0.0271
     29 H           5.4707   -1.3769    0.0000 H       1  UNL1        0.0348
     30 H           5.0584   -0.6934    0.0000 H       1  UNL1        0.0348
     31 H           4.4783   -3.2217    0.0000 H       1  UNL1        0.0678
     32 H           1.9098    0.8603    0.0000 H       1  UNL1        0.0310
     33 H           1.5026    0.1736    0.0000 H       1  UNL1        0.0310
     34 H           4.9684    0.1993    0.0000 H       1  UNL1        0.0310
     35 H           5.3669    0.8895    0.0000 H       1  UNL1        0.0310
     36 H           5.0827   -0.7875    0.0000 H       1  UNL1        0.0235
     37 H           5.3031    0.0612    0.0000 H       1  UNL1        0.0235
     38 H           4.4544    0.2816    0.0000 H       1  UNL1        0.0235
     39 H           1.9609   -2.9244    0.0000 H       1  UNL1        0.0236
     40 H           2.1846   -3.7722    0.0000 H       1  UNL1        0.0236
     41 H           3.0324   -3.5485    0.0000 H       1  UNL1        0.0236
     42 H           2.0024   -1.7485    0.0000 H       1  UNL1        0.0236
     43 H           1.3800   -2.3661    0.0000 H       1  UNL1        0.0236
     44 H           1.9976   -2.9885    0.0000 H       1  UNL1        0.0236
     45 H           5.5333    1.4372    0.0000 H       1  UNL1        0.0786
     46 H           2.4874    2.0919    0.0000 H       1  UNL1        0.0621
     47 H           4.4816   -4.2228    0.0000 H       1  UNL1        0.2104
     48 H           3.8932    4.4120    0.0000 H       1  UNL1        0.0280
     49 H           3.0176    4.4595    0.0000 H       1  UNL1        0.0280
     50 H           2.9702    3.5839    0.0000 H       1  UNL1        0.0280
@<TRIPOS>BOND
     1    12     1    1
     2     1    47    1
     3     2    19    1
     4     2    23    1
     5     3    16    2
     6     4    23    2
     7     5     6    1
     8     5     7    1
     9     5    10    1
    10     5    15    1
    11     6     8    1
    12     6     9    1
    13     6    25    1
    14     7    11    1
    15     7    14    1
    16     7    26    1
    17     8    12    1
    18     8    17    1
    19     8    18    1
    20     9    13    1
    21     9    27    1
    22     9    28    1
    23    10    16    1
    24    10    29    1
    25    10    30    1
    26    11    13    1
    27    11    20    2
    28    12    16    1
    29    12    31    1
    30    13    32    1
    31    13    33    1
    32    14    19    1
    33    14    34    1
    34    14    35    1
    35    15    36    1
    36    15    37    1
    37    15    38    1
    38    17    39    1
    39    17    40    1
    40    17    41    1
    41    18    42    1
    42    18    43    1
    43    18    44    1
    44    19    21    1
    45    19    45    1
    46    20    21    1
    47    20    46    1
    48    21    22    2
    49    22    23    1
    50    22    24    1
    51    24    48    1
    52    24    49    1
    53    24    50    1
