@<TRIPOS>MOLECULE
IMPHY012781
 33 35 0 0 0
SMALL
GASTEIGER

@<TRIPOS>ATOM
      1 O           7.3424   -1.4424    0.0000 O.3     1  UNL1       -0.4852
      2 O           9.9260   -0.6377    0.0000 O.3     1  UNL1       -0.3855
      3 O           5.5301    1.3623    0.0000 O.3     1  UNL1       -0.5057
      4 O           3.7702   -1.6723    0.0000 O.2     1  UNL1       -0.4219
      5 O           2.0000   -1.6618    0.0000 O.2     1  UNL1       -0.2452
      6 C           7.9260   -0.6377    0.0000 C.3     1  UNL1        0.1323
      7 C           8.9260   -0.6377    0.0000 C.3     1  UNL1        0.0974
      8 C           7.3424    0.1671    0.0000 C.3     1  UNL1        0.0192
      9 C           6.3961   -0.1377    0.0000 C.ar    1  UNL1        0.0400
     10 C           6.3961   -1.1377    0.0000 C.ar    1  UNL1        0.1313
     11 C           8.9260   -1.6377    0.0000 C.3     1  UNL1       -0.0328
     12 C           8.9260    0.3623    0.0000 C.3     1  UNL1       -0.0328
     13 C           5.5301    0.3623    0.0000 C.ar    1  UNL1        0.1342
     14 C           5.5301   -1.6377    0.0000 C.ar    1  UNL1        0.0236
     15 C           4.6641   -0.1377    0.0000 C.ar    1  UNL1        0.0595
     16 C           4.6641   -1.1377    0.0000 C.ar    1  UNL1        0.1460
     17 C           3.7702    0.3970    0.0000 C.ar    1  UNL1       -0.0408
     18 C           2.8641   -0.1169    0.0000 C.ar    1  UNL1        0.0237
     19 C           2.8641   -1.1585    0.0000 C.ar    1  UNL1        0.3372
     20 H           8.2077   -1.1900    0.0000 H       1  UNL1        0.0765
     21 H           7.8798    0.4763    0.0000 H       1  UNL1        0.0352
     22 H           7.0913    0.7340    0.0000 H       1  UNL1        0.0352
     23 H           8.3060   -1.6377    0.0000 H       1  UNL1        0.0258
     24 H           8.9260   -2.2577    0.0000 H       1  UNL1        0.0258
     25 H           9.5460   -1.6377    0.0000 H       1  UNL1        0.0258
     26 H           9.5460    0.3623    0.0000 H       1  UNL1        0.0258
     27 H           8.9260    0.9823    0.0000 H       1  UNL1        0.0258
     28 H           8.3060    0.3623    0.0000 H       1  UNL1        0.0258
     29 H           5.5301   -2.2577    0.0000 H       1  UNL1        0.0691
     30 H          10.2360   -1.1746    0.0000 H       1  UNL1        0.2103
     31 H           3.7773    1.0170    0.0000 H       1  UNL1        0.0628
     32 H           4.9932    1.6723    0.0000 H       1  UNL1        0.2922
     33 H           2.3284    0.1952    0.0000 H       1  UNL1        0.0689
@<TRIPOS>BOND
     1     1     6    1
     2     1    10    1
     3     2     7    1
     4     2    30    1
     5     3    13    1
     6     3    32    1
     7     4    16   ar
     8     4    19   ar
     9     5    19    2
    10     6     7    1
    11     6     8    1
    12     6    20    1
    13     7    11    1
    14     7    12    1
    15     8     9    1
    16     8    21    1
    17     8    22    1
    18     9    10   ar
    19     9    13   ar
    20    10    14   ar
    21    11    23    1
    22    11    24    1
    23    11    25    1
    24    12    26    1
    25    12    27    1
    26    12    28    1
    27    13    15   ar
    28    14    16   ar
    29    14    29    1
    30    15    16   ar
    31    15    17   ar
    32    17    18   ar
    33    17    31    1
    34    18    19   ar
    35    18    33    1
