@<TRIPOS>MOLECULE
IMPHY017072
 33 33 0 0 0
SMALL
GASTEIGER

@<TRIPOS>ATOM
      1 O           5.5981   -1.0670    0.0000 O.2     1  UNL1       -0.2954
      2 O           3.8660    1.9330    0.0000 O.2     1  UNL1       -0.2954
      3 O           2.1340   -1.0670    0.0000 O.2     1  UNL1       -0.2954
      4 C           4.7320    0.4330    0.0000 C.3     1  UNL1        0.0832
      5 C           3.8660   -1.0670    0.0000 C.3     1  UNL1        0.0832
      6 C           3.0000    0.4330    0.0000 C.3     1  UNL1        0.0832
      7 C           4.7320   -0.5670    0.0000 C.2     1  UNL1        0.1587
      8 C           3.8660    0.9330    0.0000 C.2     1  UNL1        0.1587
      9 C           3.0000   -0.5670    0.0000 C.2     1  UNL1        0.1587
     10 C           5.7320    0.4330    0.0000 C.3     1  UNL1       -0.0462
     11 C           5.2320    1.2990    0.0000 C.3     1  UNL1       -0.0462
     12 C           3.3660   -1.9330    0.0000 C.3     1  UNL1       -0.0462
     13 C           4.3660   -1.9330    0.0000 C.3     1  UNL1       -0.0462
     14 C           2.0000    0.4330    0.0000 C.3     1  UNL1       -0.0462
     15 C           2.5000    1.2990    0.0000 C.3     1  UNL1       -0.0462
     16 H           5.7320   -0.1870    0.0000 H       1  UNL1        0.0243
     17 H           6.3520    0.4330    0.0000 H       1  UNL1        0.0243
     18 H           5.7320    1.0530    0.0000 H       1  UNL1        0.0243
     19 H           5.7690    0.9890    0.0000 H       1  UNL1        0.0243
     20 H           5.5420    1.8360    0.0000 H       1  UNL1        0.0243
     21 H           4.6951    1.6090    0.0000 H       1  UNL1        0.0243
     22 H           2.8291   -1.6230    0.0000 H       1  UNL1        0.0243
     23 H           3.0560   -2.4700    0.0000 H       1  UNL1        0.0243
     24 H           3.9030   -2.2430    0.0000 H       1  UNL1        0.0243
     25 H           3.8291   -2.2430    0.0000 H       1  UNL1        0.0243
     26 H           4.6760   -2.4700    0.0000 H       1  UNL1        0.0243
     27 H           4.9030   -1.6230    0.0000 H       1  UNL1        0.0243
     28 H           2.0000    1.0530    0.0000 H       1  UNL1        0.0243
     29 H           1.3800    0.4330    0.0000 H       1  UNL1        0.0243
     30 H           2.0000   -0.1870    0.0000 H       1  UNL1        0.0243
     31 H           3.0369    1.6090    0.0000 H       1  UNL1        0.0243
     32 H           2.1900    1.8360    0.0000 H       1  UNL1        0.0243
     33 H           1.9631    0.9890    0.0000 H       1  UNL1        0.0243
@<TRIPOS>BOND
     1     1     7    2
     2     2     8    2
     3     3     9    2
     4     4     7    1
     5     4     8    1
     6     4    10    1
     7     4    11    1
     8     5     7    1
     9     5     9    1
    10     5    12    1
    11     5    13    1
    12     6     8    1
    13     6     9    1
    14     6    14    1
    15     6    15    1
    16    10    16    1
    17    10    17    1
    18    10    18    1
    19    11    19    1
    20    11    20    1
    21    11    21    1
    22    12    22    1
    23    12    23    1
    24    12    24    1
    25    13    25    1
    26    13    26    1
    27    13    27    1
    28    14    28    1
    29    14    29    1
    30    14    30    1
    31    15    31    1
    32    15    32    1
    33    15    33    1
