@<TRIPOS>MOLECULE
IMPHY011529
 107 112 0 0 0
SMALL
GASTEIGER

@<TRIPOS>ATOM
      1 O           8.0767    3.3443    0.0000 O.3     1  UNL1       -0.3620
      2 O           9.0612   -3.4684    0.0000 O.3     1  UNL1       -0.3620
      3 O           5.5767    4.2103    0.0000 O.3     1  UNL1       -0.3864
      4 O           6.5894   -2.5249    0.0000 O.3     1  UNL1       -0.3864
      5 O           6.5767    5.9424    0.0000 O.3     1  UNL1       -0.3865
      6 O           6.0767    3.3443    0.0000 O.3     1  UNL1       -0.3714
      7 O           6.2421   -4.4945    0.0000 O.3     1  UNL1       -0.3865
      8 O           7.5291   -2.1828    0.0000 O.3     1  UNL1       -0.3714
      9 O           8.5767    5.9424    0.0000 O.3     1  UNL1       -0.3865
     10 O           7.7742   -5.7800    0.0000 O.3     1  UNL1       -0.3865
     11 O          10.0767    5.0763    0.0000 O.3     1  UNL1       -0.3924
     12 O           9.4800   -6.0808    0.0000 O.3     1  UNL1       -0.3924
     13 O           8.3087    2.4783    0.0000 O.2     1  UNL1       -0.2883
     14 O           7.1420   -0.7275    0.0000 O.2     1  UNL1       -0.2883
     15 O           4.8446    2.4783    0.0000 O.2     1  UNL1       -0.2881
     16 O           9.7956   -2.9542    0.0000 O.2     1  UNL1       -0.2881
     17 O           6.5767   -0.5217    0.0000 O.2     1  UNL1       -0.5052
     18 O          10.3971    0.4573    0.0000 O.2     1  UNL1       -0.5052
     19 O           3.9786    0.9783    0.0000 O.2     1  UNL1       -0.5059
     20 O          11.4232   -2.3617    0.0000 O.2     1  UNL1       -0.2870
     21 O           2.6106   -4.7805    0.0000 O.3     1  UNL1       -0.5068
     22 O          15.2799    2.2345    0.0000 O.3     1  UNL1       -0.5068
     23 C           7.0767    3.3443    0.0000 C.3     1  UNL1        0.1307
     24 C           8.2952   -2.8256    0.0000 C.3     1  UNL1        0.1307
     25 C           6.5767    4.2103    0.0000 C.3     1  UNL1        0.1132
     26 C           7.3555   -3.1676    0.0000 C.3     1  UNL1        0.1132
     27 C           7.0767    5.0763    0.0000 C.3     1  UNL1        0.1119
     28 C           6.5767    2.4783    0.0000 C.3     1  UNL1        0.2195
     29 C           7.1818   -4.1524    0.0000 C.3     1  UNL1        0.1119
     30 C           8.4688   -1.8408    0.0000 C.3     1  UNL1        0.2195
     31 C           8.0767    5.0763    0.0000 C.3     1  UNL1        0.1117
     32 C           7.9479   -4.7952    0.0000 C.3     1  UNL1        0.1117
     33 C           8.5767    4.2103    0.0000 C.3     1  UNL1        0.1105
     34 C           8.8876   -4.4532    0.0000 C.3     1  UNL1        0.1105
     35 C           7.4427    1.9783    0.0000 C.2     1  UNL1        0.2084
     36 C           8.1268   -0.9011    0.0000 C.2     1  UNL1        0.2084
     37 C           5.7106    1.9783    0.0000 C.2     1  UNL1        0.2119
     38 C           9.4536   -2.0145    0.0000 C.2     1  UNL1        0.2121
     39 C           9.5767    4.2103    0.0000 C.3     1  UNL1        0.0729
     40 C           9.6536   -5.0960    0.0000 C.3     1  UNL1        0.0729
     41 C           7.4427    0.9783    0.0000 C.2     1  UNL1        0.0638
     42 C           8.7695   -0.1351    0.0000 C.2     1  UNL1        0.0639
     43 C           5.7106    0.9783    0.0000 C.2     1  UNL1        0.1042
     44 C          10.0963   -1.2484    0.0000 C.2     1  UNL1        0.1094
     45 C           8.4275    0.8046    0.0000 C.2     1  UNL1       -0.0335
     46 C           6.5767    0.4783    0.0000 C.2     1  UNL1        0.1415
     47 C           9.7543   -0.3087    0.0000 C.2     1  UNL1        0.1417
     48 C           4.8446    0.4783    0.0000 C.2     1  UNL1        0.1310
     49 C          11.0811   -1.4221    0.0000 C.2     1  UNL1        0.1931
     50 C           4.8446   -0.5217    0.0000 C.2     1  UNL1       -0.0188
     51 C          11.7239   -0.6560    0.0000 C.2     1  UNL1       -0.0136
     52 C           3.9786   -1.0217    0.0000 C.2     1  UNL1       -0.0511
     53 C          12.7087   -0.8297    0.0000 C.2     1  UNL1       -0.0510
     54 C           3.6367   -1.9615    0.0000 C.ar    1  UNL1       -0.0247
     55 C          13.3515   -0.0636    0.0000 C.ar    1  UNL1       -0.0247
     56 C           2.6518   -2.1351    0.0000 C.ar    1  UNL1       -0.0511
     57 C           4.2794   -2.7275    0.0000 C.ar    1  UNL1       -0.0511
     58 C          14.3363   -0.2373    0.0000 C.ar    1  UNL1       -0.0511
     59 C          13.0095    0.8761    0.0000 C.ar    1  UNL1       -0.0511
     60 C           2.3098   -3.0748    0.0000 C.ar    1  UNL1       -0.0196
     61 C           3.9373   -3.6672    0.0000 C.ar    1  UNL1       -0.0196
     62 C          14.9791    0.5288    0.0000 C.ar    1  UNL1       -0.0196
     63 C          13.6523    1.6421    0.0000 C.ar    1  UNL1       -0.0196
     64 C           2.9526   -3.8408    0.0000 C.ar    1  UNL1        0.1169
     65 C          14.6371    1.4685    0.0000 C.ar    1  UNL1        0.1169
     66 H           7.5017    2.6082    0.0000 H       1  UNL1        0.0661
     67 H           9.0939   -2.5349    0.0000 H       1  UNL1        0.0661
     68 H           6.2667    4.7472    0.0000 H       1  UNL1        0.0647
     69 H           7.4631   -2.5571    0.0000 H       1  UNL1        0.0647
     70 H           7.3867    5.6133    0.0000 H       1  UNL1        0.0647
     71 H           7.0742   -4.7630    0.0000 H       1  UNL1        0.0647
     72 H           8.6967    5.0763    0.0000 H       1  UNL1        0.0647
     73 H           8.4228   -5.1938    0.0000 H       1  UNL1        0.0647
     74 H           8.8867    3.6734    0.0000 H       1  UNL1        0.0646
     75 H           9.4702   -4.2411    0.0000 H       1  UNL1        0.0646
     76 H           9.4690    3.5997    0.0000 H       1  UNL1        0.0584
     77 H          10.1593    3.9983    0.0000 H       1  UNL1        0.0584
     78 H          10.2362   -5.3080    0.0000 H       1  UNL1        0.0584
     79 H           9.9636   -4.5590    0.0000 H       1  UNL1        0.0584
     80 H           5.2667    4.7472    0.0000 H       1  UNL1        0.2100
     81 H           6.0068   -2.7369    0.0000 H       1  UNL1        0.2100
     82 H           8.8260    1.2796    0.0000 H       1  UNL1        0.0634
     83 H           6.8867    6.4793    0.0000 H       1  UNL1        0.2100
     84 H           5.4567    3.3443    0.0000 H       1  UNL1        0.2114
     85 H           5.7671   -4.0959    0.0000 H       1  UNL1        0.2100
     86 H           7.0542   -1.7843    0.0000 H       1  UNL1        0.2114
     87 H           8.2667    6.4793    0.0000 H       1  UNL1        0.2100
     88 H           8.2492   -6.1786    0.0000 H       1  UNL1        0.2100
     89 H          10.6967    5.0763    0.0000 H       1  UNL1        0.2095
     90 H           9.9549   -6.4793    0.0000 H       1  UNL1        0.2095
     91 H           6.0397   -0.8317    0.0000 H       1  UNL1        0.2922
     92 H          11.0077    0.3497    0.0000 H       1  UNL1        0.2922
     93 H           5.3816   -0.8317    0.0000 H       1  UNL1        0.0654
     94 H          11.5119   -0.0734    0.0000 H       1  UNL1        0.0656
     95 H           3.4416    0.6683    0.0000 H       1  UNL1        0.2922
     96 H           3.4416   -0.7117    0.0000 H       1  UNL1        0.0625
     97 H          12.9208   -1.4123    0.0000 H       1  UNL1        0.0625
     98 H           2.2532   -1.6602    0.0000 H       1  UNL1        0.0625
     99 H           4.8899   -2.6198    0.0000 H       1  UNL1        0.0625
    100 H          14.5484   -0.8199    0.0000 H       1  UNL1        0.0625
    101 H          12.3989    0.9837    0.0000 H       1  UNL1        0.0625
    102 H           1.6992   -3.1825    0.0000 H       1  UNL1        0.0654
    103 H           4.3359   -4.1421    0.0000 H       1  UNL1        0.0654
    104 H          15.5897    0.4211    0.0000 H       1  UNL1        0.0654
    105 H          13.4402    2.2247    0.0000 H       1  UNL1        0.0654
    106 H           2.0000   -4.8882    0.0000 H       1  UNL1        0.2921
    107 H          15.8905    2.1268    0.0000 H       1  UNL1        0.2921
@<TRIPOS>BOND
     1     1    23    1
     2     1    33    1
     3     2    24    1
     4     2    34    1
     5    25     3    1
     6     3    80    1
     7    26     4    1
     8     4    81    1
     9    27     5    1
    10     5    83    1
    11    28     6    1
    12     6    84    1
    13    29     7    1
    14     7    85    1
    15    30     8    1
    16     8    86    1
    17    31     9    1
    18     9    87    1
    19    32    10    1
    20    10    88    1
    21    11    39    1
    22    11    89    1
    23    12    40    1
    24    12    90    1
    25    13    35    2
    26    14    36    2
    27    15    37    2
    28    16    38    2
    29    17    46    1
    30    17    91    1
    31    18    47    1
    32    18    92    1
    33    19    48    1
    34    19    95    1
    35    20    49    2
    36    21    64    1
    37    21   106    1
    38    22    65    1
    39    22   107    1
    40    23    25    1
    41    23    28    1
    42    23    66    1
    43    24    26    1
    44    24    30    1
    45    24    67    1
    46    25    27    1
    47    25    68    1
    48    26    29    1
    49    26    69    1
    50    27    31    1
    51    27    70    1
    52    28    35    1
    53    28    37    1
    54    29    32    1
    55    29    71    1
    56    30    36    1
    57    30    38    1
    58    31    33    1
    59    31    72    1
    60    32    34    1
    61    32    73    1
    62    33    39    1
    63    33    74    1
    64    34    40    1
    65    34    75    1
    66    35    41    1
    67    36    42    1
    68    37    43    1
    69    38    44    1
    70    39    76    1
    71    39    77    1
    72    40    78    1
    73    40    79    1
    74    41    45    1
    75    41    46    2
    76    42    45    2
    77    42    47    1
    78    43    46    1
    79    43    48    2
    80    44    47    2
    81    44    49    1
    82    45    82    1
    83    48    50    1
    84    49    51    1
    85    50    52    2
    86    50    93    1
    87    51    53    2
    88    51    94    1
    89    52    54    1
    90    52    96    1
    91    53    55    1
    92    53    97    1
    93    54    56   ar
    94    54    57   ar
    95    55    58   ar
    96    55    59   ar
    97    56    60   ar
    98    56    98    1
    99    57    61   ar
   100    57    99    1
   101    58    62   ar
   102    58   100    1
   103    59    63   ar
   104    59   101    1
   105    60    64   ar
   106    60   102    1
   107    61    64   ar
   108    61   103    1
   109    62    65   ar
   110    62   104    1
   111    63    65   ar
   112    63   105    1
