@<TRIPOS>MOLECULE
IMPHY004626
 99 101 0 0 0
SMALL
GASTEIGER

@<TRIPOS>ATOM
      1 O           5.4646   -5.0692    0.0000 O.3     1  UNL1       -0.3565
      2 O           2.0000   -6.0692    0.0000 O.3     1  UNL1       -0.3917
      3 O          20.0981    6.6892    0.0000 O.3     1  UNL1       -0.3877
      4 C           4.5981   -4.5692    0.0000 C.3     1  UNL1        0.1224
      5 C           4.5981   -5.5692    0.0000 C.3     1  UNL1        0.1032
      6 C           3.7320   -4.0692    0.0000 C.3     1  UNL1        0.0029
      7 C           3.7320   -6.0692    0.0000 C.3     1  UNL1        0.0052
      8 C           2.8660   -4.5692    0.0000 C.3     1  UNL1       -0.0186
      9 C           2.8660   -5.5692    0.0000 C.3     1  UNL1        0.0585
     10 C           4.5981   -6.5692    0.0000 C.3     1  UNL1       -0.0326
     11 C           5.0981   -3.7031    0.0000 C.2     1  UNL1       -0.0491
     12 C           2.8660   -3.5692    0.0000 C.3     1  UNL1       -0.0567
     13 C           3.7320   -3.0692    0.0000 C.3     1  UNL1       -0.0567
     14 C           6.0981   -3.7031    0.0000 C.2     1  UNL1       -0.0600
     15 C           6.5981   -2.8371    0.0000 C.2     1  UNL1       -0.0507
     16 C           6.0981   -1.9711    0.0000 C.3     1  UNL1       -0.0397
     17 C           7.5981   -2.8371    0.0000 C.2     1  UNL1       -0.0588
     18 C           8.0981   -1.9711    0.0000 C.2     1  UNL1       -0.0613
     19 C          19.5981    4.0911    0.0000 C.3     1  UNL1       -0.0223
     20 C          18.5981    4.0911    0.0000 C.3     1  UNL1        0.0035
     21 C          20.0981    4.9571    0.0000 C.3     1  UNL1       -0.0172
     22 C          19.5981    5.8231    0.0000 C.3     1  UNL1        0.0741
     23 C          18.0981    4.9571    0.0000 C.2     1  UNL1       -0.0668
     24 C           9.0981   -1.9711    0.0000 C.2     1  UNL1       -0.0588
     25 C          20.4641    3.5911    0.0000 C.3     1  UNL1       -0.0589
     26 C          19.5981    3.0911    0.0000 C.3     1  UNL1       -0.0589
     27 C          18.5981    5.8231    0.0000 C.2     1  UNL1       -0.0563
     28 C          18.0981    3.2251    0.0000 C.2     1  UNL1       -0.0762
     29 C          17.0981    4.9571    0.0000 C.3     1  UNL1       -0.0431
     30 C           9.5981   -1.1051    0.0000 C.2     1  UNL1       -0.0504
     31 C          17.0981    3.2251    0.0000 C.2     1  UNL1       -0.0622
     32 C           9.0981   -0.2390    0.0000 C.3     1  UNL1       -0.0397
     33 C          10.5981   -1.1051    0.0000 C.2     1  UNL1       -0.0588
     34 C          16.5981    2.3590    0.0000 C.2     1  UNL1       -0.0507
     35 C          17.0981    1.4930    0.0000 C.3     1  UNL1       -0.0397
     36 C          15.5981    2.3590    0.0000 C.2     1  UNL1       -0.0588
     37 C          11.0981   -0.2390    0.0000 C.2     1  UNL1       -0.0615
     38 C          15.0981    1.4930    0.0000 C.2     1  UNL1       -0.0613
     39 C          12.0981   -0.2390    0.0000 C.2     1  UNL1       -0.0615
     40 C          14.0981    1.4930    0.0000 C.2     1  UNL1       -0.0588
     41 C          12.5981    0.6270    0.0000 C.2     1  UNL1       -0.0588
     42 C          13.5981    0.6270    0.0000 C.2     1  UNL1       -0.0504
     43 C          14.0981   -0.2390    0.0000 C.3     1  UNL1       -0.0397
     44 H           3.3335   -6.5441    0.0000 H       1  UNL1        0.0319
     45 H           4.1306   -6.5441    0.0000 H       1  UNL1        0.0319
     46 H           2.6540   -3.9866    0.0000 H       1  UNL1        0.0296
     47 H           2.2554   -4.6768    0.0000 H       1  UNL1        0.0296
     48 H           2.8660   -6.1892    0.0000 H       1  UNL1        0.0594
     49 H           3.9781   -6.5692    0.0000 H       1  UNL1        0.0258
     50 H           4.5981   -7.1892    0.0000 H       1  UNL1        0.0258
     51 H           5.2181   -6.5692    0.0000 H       1  UNL1        0.0258
     52 H           4.7881   -3.1662    0.0000 H       1  UNL1        0.0602
     53 H           3.1760   -3.0322    0.0000 H       1  UNL1        0.0236
     54 H           2.3291   -3.2592    0.0000 H       1  UNL1        0.0236
     55 H           2.5560   -4.1061    0.0000 H       1  UNL1        0.0236
     56 H           4.3520   -3.0692    0.0000 H       1  UNL1        0.0236
     57 H           3.7320   -2.4492    0.0000 H       1  UNL1        0.0236
     58 H           3.1120   -3.0692    0.0000 H       1  UNL1        0.0236
     59 H           2.0000   -6.6892    0.0000 H       1  UNL1        0.2098
     60 H           6.4081   -4.2401    0.0000 H       1  UNL1        0.0618
     61 H           6.6350   -1.6611    0.0000 H       1  UNL1        0.0278
     62 H           5.7881   -1.4342    0.0000 H       1  UNL1        0.0278
     63 H           5.5611   -2.2811    0.0000 H       1  UNL1        0.0278
     64 H           7.9081   -3.3740    0.0000 H       1  UNL1        0.0620
     65 H           7.7881   -1.4342    0.0000 H       1  UNL1        0.0618
     66 H          18.9081    3.5542    0.0000 H       1  UNL1        0.0393
     67 H          20.5730    4.5586    0.0000 H       1  UNL1        0.0299
     68 H          20.5730    5.3556    0.0000 H       1  UNL1        0.0299
     69 H          20.2181    5.8231    0.0000 H       1  UNL1        0.0638
     70 H          20.1541    3.0542    0.0000 H       1  UNL1        0.0235
     71 H          21.0010    3.2811    0.0000 H       1  UNL1        0.0235
     72 H          20.7741    4.1280    0.0000 H       1  UNL1        0.0235
     73 H          18.9781    3.0911    0.0000 H       1  UNL1        0.0235
     74 H          19.5981    2.4711    0.0000 H       1  UNL1        0.0235
     75 H          20.2181    3.0911    0.0000 H       1  UNL1        0.0235
     76 H           9.4081   -2.5080    0.0000 H       1  UNL1        0.0620
     77 H          18.2881    6.3601    0.0000 H       1  UNL1        0.0597
     78 H          18.4081    2.6881    0.0000 H       1  UNL1        0.0578
     79 H          17.0981    5.5771    0.0000 H       1  UNL1        0.0275
     80 H          16.4781    4.9571    0.0000 H       1  UNL1        0.0275
     81 H          17.0981    4.3371    0.0000 H       1  UNL1        0.0275
     82 H          20.7181    6.6892    0.0000 H       1  UNL1        0.2102
     83 H          16.7881    3.7620    0.0000 H       1  UNL1        0.0617
     84 H           9.6350    0.0710    0.0000 H       1  UNL1        0.0278
     85 H           8.7881    0.2979    0.0000 H       1  UNL1        0.0278
     86 H           8.5611   -0.5490    0.0000 H       1  UNL1        0.0278
     87 H          10.9081   -1.6420    0.0000 H       1  UNL1        0.0620
     88 H          16.5611    1.1830    0.0000 H       1  UNL1        0.0278
     89 H          17.4081    0.9561    0.0000 H       1  UNL1        0.0278
     90 H          17.6350    1.8030    0.0000 H       1  UNL1        0.0278
     91 H          15.2881    2.8960    0.0000 H       1  UNL1        0.0620
     92 H          10.7881    0.2979    0.0000 H       1  UNL1        0.0618
     93 H          15.4081    0.9561    0.0000 H       1  UNL1        0.0618
     94 H          12.4081   -0.7760    0.0000 H       1  UNL1        0.0618
     95 H          13.7881    2.0300    0.0000 H       1  UNL1        0.0620
     96 H          12.2881    1.1639    0.0000 H       1  UNL1        0.0620
     97 H          13.5611   -0.5490    0.0000 H       1  UNL1        0.0278
     98 H          14.4081   -0.7760    0.0000 H       1  UNL1        0.0278
     99 H          14.6350    0.0710    0.0000 H       1  UNL1        0.0278
@<TRIPOS>BOND
     1     1     4    1
     2     1     5    1
     3     9     2    1
     4     2    59    1
     5    22     3    1
     6     3    82    1
     7     4     5    1
     8     4     6    1
     9     4    11    1
    10     5     7    1
    11     5    10    1
    12     6     8    1
    13     6    12    1
    14     6    13    1
    15     7     9    1
    16     7    44    1
    17     7    45    1
    18     8     9    1
    19     8    46    1
    20     8    47    1
    21     9    48    1
    22    10    49    1
    23    10    50    1
    24    10    51    1
    25    11    14    2
    26    11    52    1
    27    12    53    1
    28    12    54    1
    29    12    55    1
    30    13    56    1
    31    13    57    1
    32    13    58    1
    33    14    15    1
    34    14    60    1
    35    15    16    1
    36    15    17    2
    37    16    61    1
    38    16    62    1
    39    16    63    1
    40    17    18    1
    41    17    64    1
    42    18    24    2
    43    18    65    1
    44    19    20    1
    45    19    21    1
    46    19    25    1
    47    19    26    1
    48    20    23    1
    49    20    28    1
    50    20    66    1
    51    21    22    1
    52    21    67    1
    53    21    68    1
    54    22    27    1
    55    22    69    1
    56    23    27    2
    57    23    29    1
    58    24    30    1
    59    24    76    1
    60    25    70    1
    61    25    71    1
    62    25    72    1
    63    26    73    1
    64    26    74    1
    65    26    75    1
    66    27    77    1
    67    28    31    2
    68    28    78    1
    69    29    79    1
    70    29    80    1
    71    29    81    1
    72    30    32    1
    73    30    33    2
    74    31    34    1
    75    31    83    1
    76    32    84    1
    77    32    85    1
    78    32    86    1
    79    33    37    1
    80    33    87    1
    81    34    35    1
    82    34    36    2
    83    35    88    1
    84    35    89    1
    85    35    90    1
    86    36    38    1
    87    36    91    1
    88    37    39    2
    89    37    92    1
    90    38    40    2
    91    38    93    1
    92    39    41    1
    93    39    94    1
    94    40    42    1
    95    40    95    1
    96    41    42    2
    97    41    96    1
    98    42    43    1
    99    43    97    1
   100    43    98    1
   101    43    99    1
