@<TRIPOS>MOLECULE
IMPHY015749
 32 31 0 0 0
SMALL
GASTEIGER

@<TRIPOS>ATOM
      1 O           5.4641    0.7500    0.0000 O.3     1  UNL1       -0.4646
      2 O           6.3301   -0.7500    0.0000 O.2     1  UNL1       -0.2508
      3 C           2.8660    0.2500    0.0000 C.3     1  UNL1       -0.0436
      4 C           3.7320    0.7500    0.0000 C.3     1  UNL1       -0.0162
      5 C           8.0622    0.2500    0.0000 C.3     1  UNL1       -0.0367
      6 C           4.5981    0.2500    0.0000 C.3     1  UNL1        0.0927
      7 C           7.1962    0.7500    0.0000 C.3     1  UNL1        0.0473
      8 C           2.0000    0.7500    0.0000 C.3     1  UNL1       -0.0626
      9 C           2.8660   -0.7500    0.0000 C.3     1  UNL1       -0.0626
     10 C           8.9282    0.7500    0.0000 C.3     1  UNL1       -0.0622
     11 C           8.0622   -0.7500    0.0000 C.3     1  UNL1       -0.0622
     12 C           6.3301    0.2500    0.0000 C.2     1  UNL1        0.3073
     13 H           2.8660    0.8700    0.0000 H       1  UNL1        0.0297
     14 H           4.1306    1.2250    0.0000 H       1  UNL1        0.0300
     15 H           3.3335    1.2250    0.0000 H       1  UNL1        0.0300
     16 H           8.0622    0.8700    0.0000 H       1  UNL1        0.0301
     17 H           4.1996   -0.2249    0.0000 H       1  UNL1        0.0697
     18 H           4.9966   -0.2249    0.0000 H       1  UNL1        0.0697
     19 H           7.5947    1.2250    0.0000 H       1  UNL1        0.0380
     20 H           6.7976    1.2250    0.0000 H       1  UNL1        0.0380
     21 H           2.3100    1.2869    0.0000 H       1  UNL1        0.0232
     22 H           1.4631    1.0600    0.0000 H       1  UNL1        0.0232
     23 H           1.6900    0.2131    0.0000 H       1  UNL1        0.0232
     24 H           2.2460   -0.7500    0.0000 H       1  UNL1        0.0232
     25 H           2.8660   -1.3700    0.0000 H       1  UNL1        0.0232
     26 H           3.4860   -0.7500    0.0000 H       1  UNL1        0.0232
     27 H           9.2382    0.2131    0.0000 H       1  UNL1        0.0232
     28 H           9.4651    1.0600    0.0000 H       1  UNL1        0.0232
     29 H           8.6182    1.2869    0.0000 H       1  UNL1        0.0232
     30 H           7.4422   -0.7500    0.0000 H       1  UNL1        0.0232
     31 H           8.0622   -1.3700    0.0000 H       1  UNL1        0.0232
     32 H           8.6822   -0.7500    0.0000 H       1  UNL1        0.0232
@<TRIPOS>BOND
     1     1     6    1
     2     1    12    1
     3     2    12    2
     4     3     4    1
     5     3     8    1
     6     3     9    1
     7     3    13    1
     8     4     6    1
     9     4    14    1
    10     4    15    1
    11     5     7    1
    12     5    10    1
    13     5    11    1
    14     5    16    1
    15     6    17    1
    16     6    18    1
    17     7    12    1
    18     7    19    1
    19     7    20    1
    20     8    21    1
    21     8    22    1
    22     8    23    1
    23     9    24    1
    24     9    25    1
    25     9    26    1
    26    10    27    1
    27    10    28    1
    28    10    29    1
    29    11    30    1
    30    11    31    1
    31    11    32    1
