@<TRIPOS>MOLECULE
IMPHY000980
 35 37 0 0 0
SMALL
GASTEIGER

@<TRIPOS>ATOM
      1 O           6.0682   -0.2673    0.0000 O.3     1  UNL1       -0.4838
      2 O           2.5381   -0.2915    0.0000 O.3     1  UNL1       -0.5066
      3 O          10.3984   -1.7673    0.0000 O.3     1  UNL1       -0.4951
      4 C           6.9343    0.2327    0.0000 C.3     1  UNL1        0.1255
      5 C           6.9343    1.2327    0.0000 C.3     1  UNL1       -0.0074
      6 C           6.0682    1.7327    0.0000 C.3     1  UNL1       -0.0206
      7 C           5.2022    1.2327    0.0000 C.ar    1  UNL1       -0.0053
      8 C           7.8003   -0.2673    0.0000 C.ar    1  UNL1       -0.0071
      9 C           5.2022    0.2327    0.0000 C.ar    1  UNL1        0.1280
     10 C           4.3083    1.7673    0.0000 C.ar    1  UNL1       -0.0517
     11 C           4.3083   -0.3020    0.0000 C.ar    1  UNL1        0.0218
     12 C           7.8003   -1.2673    0.0000 C.ar    1  UNL1       -0.0516
     13 C           8.6663    0.2327    0.0000 C.ar    1  UNL1       -0.0516
     14 C           3.4022    1.2535    0.0000 C.ar    1  UNL1       -0.0197
     15 C           3.4022    0.2119    0.0000 C.ar    1  UNL1        0.1203
     16 C           8.6663   -1.7673    0.0000 C.ar    1  UNL1       -0.0196
     17 C           9.5323   -0.2673    0.0000 C.ar    1  UNL1       -0.0196
     18 C           9.5323   -1.2673    0.0000 C.ar    1  UNL1        0.1201
     19 C          11.2644   -1.2673    0.0000 C.3     1  UNL1        0.0788
     20 H           6.9343   -0.3873    0.0000 H       1  UNL1        0.0784
     21 H           7.5449    1.1250    0.0000 H       1  UNL1        0.0307
     22 H           7.1463    1.8153    0.0000 H       1  UNL1        0.0307
     23 H           6.4668    2.2076    0.0000 H       1  UNL1        0.0316
     24 H           5.6697    2.2076    0.0000 H       1  UNL1        0.0316
     25 H           4.3154    2.3873    0.0000 H       1  UNL1        0.0623
     26 H           4.3154   -0.9220    0.0000 H       1  UNL1        0.0691
     27 H           7.2634   -1.5773    0.0000 H       1  UNL1        0.0623
     28 H           8.6663    0.8527    0.0000 H       1  UNL1        0.0623
     29 H           2.8665    1.5656    0.0000 H       1  UNL1        0.0654
     30 H           8.6663   -2.3873    0.0000 H       1  UNL1        0.0654
     31 H          10.0693    0.0427    0.0000 H       1  UNL1        0.0654
     32 H           2.0000    0.0164    0.0000 H       1  UNL1        0.2921
     33 H          11.5744   -1.8043    0.0000 H       1  UNL1        0.0660
     34 H          11.8013   -0.9573    0.0000 H       1  UNL1        0.0660
     35 H          10.9544   -0.7304    0.0000 H       1  UNL1        0.0660
@<TRIPOS>BOND
     1     1     4    1
     2     1     9    1
     3     2    15    1
     4     2    32    1
     5     3    18    1
     6     3    19    1
     7     4     5    1
     8     4     8    1
     9     4    20    1
    10     5     6    1
    11     5    21    1
    12     5    22    1
    13     6     7    1
    14     6    23    1
    15     6    24    1
    16     7     9   ar
    17     7    10   ar
    18     8    12   ar
    19     8    13   ar
    20     9    11   ar
    21    10    14   ar
    22    10    25    1
    23    11    15   ar
    24    11    26    1
    25    12    16   ar
    26    12    27    1
    27    13    17   ar
    28    13    28    1
    29    14    15   ar
    30    14    29    1
    31    16    18   ar
    32    16    30    1
    33    17    18   ar
    34    17    31    1
    35    19    33    1
    36    19    34    1
    37    19    35    1
