@<TRIPOS>MOLECULE
IMPHY012866
 46 49 0 0 0
SMALL
GASTEIGER

@<TRIPOS>ATOM
      1 O           6.9367   -3.3203    0.0000 O.3     1  UNL1       -0.4778
      2 O           6.0427    1.2143    0.0000 O.2     1  UNL1       -0.4618
      3 O           3.4446   -3.2857    0.0000 O.3     1  UNL1       -0.4913
      4 O           5.1767   -4.2857    0.0000 O.3     1  UNL1       -0.5009
      5 O           3.4446   -0.2857    0.0000 O.2     1  UNL1       -0.2863
      6 O           2.5405    1.2112    0.0000 O.3     1  UNL1       -0.5058
      7 O           4.2986    4.2836    0.0000 O.3     1  UNL1       -0.5065
      8 C           7.8427   -2.8065    0.0000 C.3     1  UNL1        0.1237
      9 C           6.0427   -1.7857    0.0000 C.ar    1  UNL1        0.0283
     10 C           6.0427   -2.7857    0.0000 C.ar    1  UNL1        0.1743
     11 C           7.8427   -1.7648    0.0000 C.2     1  UNL1       -0.0409
     12 C           5.1767   -1.2857    0.0000 C.ar    1  UNL1        0.0031
     13 C           6.9367   -1.2510    0.0000 C.2     1  UNL1       -0.0506
     14 C           8.8427   -2.8103    0.0000 C.3     1  UNL1       -0.0215
     15 C           8.3394   -3.6744    0.0000 C.3     1  UNL1       -0.0215
     16 C           5.1767   -0.2857    0.0000 C.ar    1  UNL1        0.0652
     17 C           5.1767   -3.2857    0.0000 C.ar    1  UNL1        0.2017
     18 C           4.3107   -1.7857    0.0000 C.ar    1  UNL1       -0.0076
     19 C           4.3107   -2.7857    0.0000 C.ar    1  UNL1        0.1656
     20 C           4.3107    0.2143    0.0000 C.ar    1  UNL1        0.2037
     21 C           4.3107    1.2143    0.0000 C.ar    1  UNL1        0.1060
     22 C           6.0427    0.2143    0.0000 C.ar    1  UNL1        0.1039
     23 C           5.1767    1.7143    0.0000 C.ar    1  UNL1        0.1454
     24 C           3.4007    1.7212    0.0000 C.ar    1  UNL1        0.1347
     25 C           5.1928    2.7558    0.0000 C.ar    1  UNL1        0.0231
     26 C           3.3926    2.7628    0.0000 C.ar    1  UNL1        0.0223
     27 C           4.2947    3.2836    0.0000 C.ar    1  UNL1        0.1239
     28 C           2.5786   -2.7857    0.0000 C.3     1  UNL1        0.0790
     29 H           8.3785   -1.4528    0.0000 H       1  UNL1        0.0611
     30 H           6.9295   -0.6310    0.0000 H       1  UNL1        0.0623
     31 H           8.8403   -3.4303    0.0000 H       1  UNL1        0.0271
     32 H           9.4627   -2.8127    0.0000 H       1  UNL1        0.0271
     33 H           8.8451   -2.1903    0.0000 H       1  UNL1        0.0271
     34 H           7.8013   -3.9824    0.0000 H       1  UNL1        0.0271
     35 H           8.6473   -4.2126    0.0000 H       1  UNL1        0.0271
     36 H           8.8775   -3.3665    0.0000 H       1  UNL1        0.0271
     37 H           3.7737   -1.4757    0.0000 H       1  UNL1        0.0662
     38 H           6.5797   -0.0957    0.0000 H       1  UNL1        0.1037
     39 H           5.7332    3.0596    0.0000 H       1  UNL1        0.0691
     40 H           4.6398   -4.5957    0.0000 H       1  UNL1        0.2924
     41 H           2.8545    3.0707    0.0000 H       1  UNL1        0.0691
     42 H           2.8886   -2.2487    0.0000 H       1  UNL1        0.0660
     43 H           2.0417   -2.4757    0.0000 H       1  UNL1        0.0660
     44 H           2.2686   -3.3226    0.0000 H       1  UNL1        0.0660
     45 H           2.0000    1.5150    0.0000 H       1  UNL1        0.2922
     46 H           3.7628    4.5957    0.0000 H       1  UNL1        0.2921
@<TRIPOS>BOND
     1     1     8    1
     2     1    10    1
     3     2    22   ar
     4     2    23   ar
     5     3    19    1
     6     3    28    1
     7     4    17    1
     8     4    40    1
     9     5    20    2
    10     6    24    1
    11     6    45    1
    12     7    27    1
    13     7    46    1
    14     8    11    1
    15     8    14    1
    16     8    15    1
    17     9    10   ar
    18     9    12   ar
    19     9    13    1
    20    10    17   ar
    21    11    13    2
    22    11    29    1
    23    12    16    1
    24    12    18   ar
    25    13    30    1
    26    14    31    1
    27    14    32    1
    28    14    33    1
    29    15    34    1
    30    15    35    1
    31    15    36    1
    32    16    20   ar
    33    16    22   ar
    34    17    19   ar
    35    18    19   ar
    36    18    37    1
    37    20    21   ar
    38    21    23   ar
    39    21    24   ar
    40    22    38    1
    41    23    25   ar
    42    24    26   ar
    43    25    27   ar
    44    25    39    1
    45    26    27   ar
    46    26    41    1
    47    28    42    1
    48    28    43    1
    49    28    44    1
