@<TRIPOS>MOLECULE
IMPHY006171
 20 19 0 0 0
SMALL
GASTEIGER

@<TRIPOS>ATOM
      1 S           4.5981    0.2500    0.0000 S.3     1  UNL1       -0.0770
      2 S           7.1962   -0.2500    0.0000 S.3     1  UNL1       -0.0770
      3 S           5.4641   -0.2500    0.0000 S.3     1  UNL1       -0.0126
      4 S           6.3301    0.2500    0.0000 S.3     1  UNL1       -0.0126
      5 C           8.0622    0.2500    0.0000 C.3     1  UNL1        0.0226
      6 C           3.7320   -0.2500    0.0000 C.3     1  UNL1        0.0226
      7 C           8.9282   -0.2500    0.0000 C.2     1  UNL1       -0.0805
      8 C           2.8660    0.2500    0.0000 C.2     1  UNL1       -0.0805
      9 C           9.7942    0.2500    0.0000 C.2     1  UNL1       -0.1018
     10 C           2.0000   -0.2500    0.0000 C.2     1  UNL1       -0.1018
     11 H           3.3335   -0.7249    0.0000 H       1  UNL1        0.0427
     12 H           4.1306   -0.7249    0.0000 H       1  UNL1        0.0427
     13 H           8.4607    0.7249    0.0000 H       1  UNL1        0.0427
     14 H           7.6636    0.7249    0.0000 H       1  UNL1        0.0427
     15 H           8.9282   -0.8700    0.0000 H       1  UNL1        0.0575
     16 H           2.8660    0.8700    0.0000 H       1  UNL1        0.0575
     17 H          10.3312   -0.0600    0.0000 H       1  UNL1        0.0532
     18 H           9.7942    0.8700    0.0000 H       1  UNL1        0.0532
     19 H           1.4631    0.0600    0.0000 H       1  UNL1        0.0532
     20 H           2.0000   -0.8700    0.0000 H       1  UNL1        0.0532
@<TRIPOS>BOND
     1     1     3    1
     2     1     6    1
     3     2     4    1
     4     2     5    1
     5     3     4    1
     6     5     7    1
     7     5    13    1
     8     5    14    1
     9     6     8    1
    10     6    11    1
    11     6    12    1
    12     7     9    2
    13     7    15    1
    14     8    10    2
    15     8    16    1
    16     9    17    1
    17     9    18    1
    18    10    19    1
    19    10    20    1
