@<TRIPOS>MOLECULE
IMPHY006548
 19 20 0 0 0
SMALL
GASTEIGER

@<TRIPOS>ATOM
      1 O           5.9674    1.3831    0.0000 O.3     1  UNL1       -0.4771
      2 O           4.3211    1.9212    0.0000 O.2     1  UNL1       -0.2451
      3 N           4.6783   -1.3831    0.0000 N.ar    1  UNL1       -0.3598
      4 C           3.7320   -0.0784    0.0000 C.ar    1  UNL1        0.0136
      5 C           3.7320   -1.0784    0.0000 C.ar    1  UNL1        0.0473
      6 C           4.6783    0.2264    0.0000 C.ar    1  UNL1        0.0837
      7 C           5.2619   -0.5784    0.0000 C.ar    1  UNL1        0.0167
      8 C           2.8660    0.4216    0.0000 C.ar    1  UNL1       -0.0518
      9 C           2.8660   -1.5784    0.0000 C.ar    1  UNL1       -0.0378
     10 C           2.0000   -0.0784    0.0000 C.ar    1  UNL1       -0.0611
     11 C           2.0000   -1.0784    0.0000 C.ar    1  UNL1       -0.0598
     12 C           4.9889    1.1769    0.0000 C.2     1  UNL1        0.3388
     13 H           4.8709   -1.9724    0.0000 H       1  UNL1        0.1654
     14 H           5.8819   -0.5784    0.0000 H       1  UNL1        0.0815
     15 H           2.8660    1.0416    0.0000 H       1  UNL1        0.0624
     16 H           2.8660   -2.1984    0.0000 H       1  UNL1        0.0638
     17 H           1.4631    0.2316    0.0000 H       1  UNL1        0.0618
     18 H           1.4631   -1.3884    0.0000 H       1  UNL1        0.0618
     19 H           6.1600    1.9724    0.0000 H       1  UNL1        0.2954
@<TRIPOS>BOND
     1     1    12    1
     2     1    19    1
     3     2    12    2
     4     3     5   ar
     5     3     7   ar
     6     3    13    1
     7     4     5   ar
     8     4     6   ar
     9     4     8   ar
    10     5     9   ar
    11     6     7   ar
    12     6    12    1
    13     7    14    1
    14     8    10   ar
    15     8    15    1
    16     9    11   ar
    17     9    16    1
    18    10    11   ar
    19    10    17    1
    20    11    18    1
