@<TRIPOS>MOLECULE
IMPHY002339
 22 23 0 0 0
SMALL
GASTEIGER

@<TRIPOS>ATOM
      1 C           3.5281    3.5400    0.0000 C.3     1  UNL1        0.1134
      2 C           3.5281    4.5603    0.0000 C.3     1  UNL1        0.1815
      3 C           4.4943    3.2252    0.0000 C.2     1  UNL1        0.0604
      4 C           2.6397    3.0289    0.0000 C.3     1  UNL1        0.1979
      5 O           4.4943    4.8751    0.0000 O.3     1  UNL1       -0.4486
      6 C           2.6397    5.0629    0.0000 C.3     1  UNL1        0.0733
      7 C           5.0950    4.0459    0.0000 C.2     1  UNL1        0.3373
      8 C           4.8361    2.4502    0.0000 C.2     1  UNL1        0.0023
      9 C           1.7615    3.5400    0.0000 C.2     1  UNL1        0.0087
     10 O           2.6397    1.7700    0.0000 O.3     1  UNL1       -0.4472
     11 C           1.7615    4.5603    0.0000 C.2     1  UNL1        0.0161
     12 O           5.9225    4.0171    0.0000 O.2     1  UNL1       -0.2452
     13 C           0.8850    3.0357    0.0000 C.2     1  UNL1       -0.0443
     14 C           3.2861    0.8850    0.0000 C.2     1  UNL1        0.3178
     15 C           0.8850    5.0730    0.0000 C.2     1  UNL1        0.1696
     16 C           1.7615    5.6501    0.0000 C.2     1  UNL1       -0.0016
     17 C           0.0000    3.5400    0.0000 C.3     1  UNL1        0.0299
     18 C           0.8850    2.0407    0.0000 C.3     1  UNL1        0.0261
     19 O           3.2861    0.0000    0.0000 O.2     1  UNL1       -0.2501
     20 C           4.0459    1.3588    0.0000 C.3     1  UNL1        0.1212
     21 C           0.0000    4.5603    0.0000 C.3     1  UNL1        0.0731
     22 O           0.8850    5.9225    0.0000 O.2     1  UNL1       -0.2917
@<TRIPOS>BOND
     1     1     2    1
     2     1     3    1
     3     1     4    1
     4     2     5    1
     5     2     6    1
     6     3     7    1
     7     3     8    2
     8     4     9    1
     9     4    10    1
    10     5     7    1
    11     6    11    1
    12     7    12    2
    13     9    13    2
    14    10    14    1
    15    11    15    1
    16    11    16    2
    17    13    17    1
    18    13    18    1
    19    14    19    2
    20    14    20    1
    21    15    21    1
    22    15    22    2
    23    17    21    1
