@<TRIPOS>MOLECULE
IMPHY015367
 63 63 0 0 0
SMALL
GASTEIGER

@<TRIPOS>ATOM
      1 O           3.6180   -1.9318    0.0000 O.3     1  UNL1       -0.4583
      2 O           3.8968   -3.6919    0.0000 O.2     1  UNL1       -0.2508
      3 C           2.8090   -1.3440    0.0000 C.3     1  UNL1        0.1113
      4 C           3.3968   -0.5350    0.0000 C.3     1  UNL1       -0.0131
      5 C           5.9736    0.0649    0.0000 C.3     1  UNL1       -0.0439
      6 C           4.3913   -0.6396    0.0000 C.3     1  UNL1       -0.0492
      7 C           4.9791    0.1695    0.0000 C.3     1  UNL1       -0.0503
      8 C           2.0000   -1.9318    0.0000 C.3     1  UNL1       -0.0030
      9 C           6.5614    0.8739    0.0000 C.3     1  UNL1       -0.0505
     10 C           7.5559    0.7694    0.0000 C.3     1  UNL1       -0.0526
     11 C           9.1382    1.4739    0.0000 C.3     1  UNL1       -0.0439
     12 C           8.1437    1.5784    0.0000 C.3     1  UNL1       -0.0505
     13 C           2.3090   -2.8829    0.0000 C.3     1  UNL1        0.0486
     14 C           2.2212   -0.5350    0.0000 C.3     1  UNL1       -0.0248
     15 C           9.7260    2.2829    0.0000 C.3     1  UNL1       -0.0505
     16 C           6.3804   -0.8486    0.0000 C.3     1  UNL1       -0.0624
     17 C          10.7206    2.1784    0.0000 C.3     1  UNL1       -0.0526
     18 C           3.3090   -2.8829    0.0000 C.2     1  UNL1        0.3077
     19 C           9.5450    0.5604    0.0000 C.3     1  UNL1       -0.0624
     20 C          11.3083    2.9874    0.0000 C.3     1  UNL1       -0.0507
     21 C          12.3029    2.8829    0.0000 C.3     1  UNL1       -0.0467
     22 C          12.8906    3.6919    0.0000 C.3     1  UNL1       -0.0627
     23 C          12.7096    1.9693    0.0000 C.3     1  UNL1       -0.0627
     24 H           3.5677    0.0610    0.0000 H       1  UNL1        0.0304
     25 H           2.8396   -0.2632    0.0000 H       1  UNL1        0.0304
     26 H           6.5902    0.0001    0.0000 H       1  UNL1        0.0298
     27 H           4.2204   -1.2355    0.0000 H       1  UNL1        0.0267
     28 H           4.9486   -0.9113    0.0000 H       1  UNL1        0.0267
     29 H           5.1500    0.7654    0.0000 H       1  UNL1        0.0268
     30 H           4.4219    0.4413    0.0000 H       1  UNL1        0.0268
     31 H           1.6900   -1.3949    0.0000 H       1  UNL1        0.0309
     32 H           1.4336   -2.1840    0.0000 H       1  UNL1        0.0309
     33 H           6.7323    1.4699    0.0000 H       1  UNL1        0.0268
     34 H           6.0042    1.1457    0.0000 H       1  UNL1        0.0268
     35 H           7.3850    0.1734    0.0000 H       1  UNL1        0.0265
     36 H           8.1132    0.4976    0.0000 H       1  UNL1        0.0265
     37 H           8.7738    0.9723    0.0000 H       1  UNL1        0.0298
     38 H           8.3146    2.1744    0.0000 H       1  UNL1        0.0268
     39 H           7.5865    1.8502    0.0000 H       1  UNL1        0.0268
     40 H           1.7026   -3.0118    0.0000 H       1  UNL1        0.0379
     41 H           2.3738   -3.4995    0.0000 H       1  UNL1        0.0379
     42 H           2.7228   -0.1706    0.0000 H       1  UNL1        0.0268
     43 H           1.8568   -0.0334    0.0000 H       1  UNL1        0.0268
     44 H           1.7196   -0.8995    0.0000 H       1  UNL1        0.0268
     45 H           9.8969    2.8789    0.0000 H       1  UNL1        0.0268
     46 H           9.1688    2.5547    0.0000 H       1  UNL1        0.0268
     47 H           5.8140   -1.1008    0.0000 H       1  UNL1        0.0232
     48 H           6.6325   -1.4150    0.0000 H       1  UNL1        0.0232
     49 H           6.9468   -0.5964    0.0000 H       1  UNL1        0.0232
     50 H          10.5497    1.5824    0.0000 H       1  UNL1        0.0265
     51 H          11.2778    1.9066    0.0000 H       1  UNL1        0.0265
     52 H           8.9786    0.3082    0.0000 H       1  UNL1        0.0232
     53 H           9.7972   -0.0060    0.0000 H       1  UNL1        0.0232
     54 H          10.1114    0.8125    0.0000 H       1  UNL1        0.0232
     55 H          11.4792    3.5834    0.0000 H       1  UNL1        0.0268
     56 H          10.7511    3.2592    0.0000 H       1  UNL1        0.0268
     57 H          12.9195    2.8181    0.0000 H       1  UNL1        0.0295
     58 H          13.3922    3.3275    0.0000 H       1  UNL1        0.0232
     59 H          13.2551    4.1935    0.0000 H       1  UNL1        0.0232
     60 H          12.3891    4.0563    0.0000 H       1  UNL1        0.0232
     61 H          12.1432    1.7172    0.0000 H       1  UNL1        0.0232
     62 H          12.9618    1.4029    0.0000 H       1  UNL1        0.0232
     63 H          13.2760    2.2215    0.0000 H       1  UNL1        0.0232
@<TRIPOS>BOND
     1     1     3    1
     2     1    18    1
     3     2    18    2
     4     3     4    1
     5     3     8    1
     6     3    14    1
     7     4     6    1
     8     4    24    1
     9     4    25    1
    10     5     7    1
    11     5     9    1
    12     5    16    1
    13     5    26    1
    14     6     7    1
    15     6    27    1
    16     6    28    1
    17     7    29    1
    18     7    30    1
    19     8    13    1
    20     8    31    1
    21     8    32    1
    22     9    10    1
    23     9    33    1
    24     9    34    1
    25    10    12    1
    26    10    35    1
    27    10    36    1
    28    11    12    1
    29    11    15    1
    30    11    19    1
    31    11    37    1
    32    12    38    1
    33    12    39    1
    34    13    18    1
    35    13    40    1
    36    13    41    1
    37    14    42    1
    38    14    43    1
    39    14    44    1
    40    15    17    1
    41    15    45    1
    42    15    46    1
    43    16    47    1
    44    16    48    1
    45    16    49    1
    46    17    20    1
    47    17    50    1
    48    17    51    1
    49    19    52    1
    50    19    53    1
    51    19    54    1
    52    20    21    1
    53    20    55    1
    54    20    56    1
    55    21    22    1
    56    21    23    1
    57    21    57    1
    58    22    58    1
    59    22    59    1
    60    22    60    1
    61    23    61    1
    62    23    62    1
    63    23    63    1
