@<TRIPOS>MOLECULE
IMPHY006731
 55 60 0 0 0
SMALL
GASTEIGER

@<TRIPOS>ATOM
      1 O           6.3423    1.6778    0.0000 O.3     1  UNL1       -0.3190
      2 O           4.6512   -0.7913    0.0000 O.3     1  UNL1       -0.4559
      3 O           8.1324    1.0961    0.0000 O.3     1  UNL1       -0.4325
      4 O           3.2568    0.1550    0.0000 O.3     1  UNL1       -0.4554
      5 O           4.8612    2.0472    0.0000 O.3     1  UNL1       -0.3805
      6 O           5.0470   -1.4266    0.0000 O.3     1  UNL1       -0.3872
      7 O           6.3423   -2.3678    0.0000 O.3     1  UNL1       -0.3878
      8 O           7.6377   -1.4266    0.0000 O.3     1  UNL1       -0.3798
      9 O           3.7551    0.8622    0.0000 O.2     1  UNL1       -0.2474
     10 O           9.3893   -0.1540    0.0000 O.2     1  UNL1       -0.2478
     11 O           2.0000    1.4051    0.0000 O.2     1  UNL1       -0.2504
     12 C           5.8475    0.1550    0.0000 C.3     1  UNL1        0.0965
     13 C           6.8371    0.1550    0.0000 C.3     1  UNL1        0.0899
     14 C           5.5418    1.0961    0.0000 C.3     1  UNL1        0.2141
     15 C           5.5418   -0.7861    0.0000 C.3     1  UNL1        0.1413
     16 C           7.1429   -0.7861    0.0000 C.3     1  UNL1        0.0085
     17 C           4.5522    1.0961    0.0000 C.3     1  UNL1        0.1577
     18 C           5.0470   -0.4266    0.0000 C.3     1  UNL1        0.1081
     19 C           7.1429    1.0961    0.0000 C.3     1  UNL1        0.2157
     20 C           6.3423   -1.3678    0.0000 C.3     1  UNL1        0.0969
     21 C           4.2464    0.1550    0.0000 C.3     1  UNL1        0.1620
     22 C           7.6377   -0.4266    0.0000 C.3     1  UNL1        0.1641
     23 C           4.6512    0.4182    0.0000 C.2     1  UNL1        0.3438
     24 C           8.0939   -1.0952    0.0000 C.3     1  UNL1       -0.0316
     25 C           3.7516    1.6778    0.0000 C.3     1  UNL1        0.0892
     26 C           8.4382    0.1550    0.0000 C.2     1  UNL1        0.3390
     27 C           2.9511    1.0961    0.0000 C.2     1  UNL1        0.3134
     28 C           9.0450   -1.4042    0.0000 C.3     1  UNL1       -0.0597
     29 C           7.7849   -2.0462    0.0000 C.3     1  UNL1       -0.0597
     30 C           8.9420   -0.5652    0.0000 C.3     1  UNL1       -0.0597
     31 C           3.7516    2.6778    0.0000 C.3     1  UNL1       -0.0494
     32 H           5.2814   -1.5953    0.0000 H       1  UNL1        0.0768
     33 H           7.2758   -1.6257    0.0000 H       1  UNL1        0.0341
     34 H           4.4945   -0.7081    0.0000 H       1  UNL1        0.0639
     35 H           7.3345    1.6858    0.0000 H       1  UNL1        0.1064
     36 H           5.7899   -1.6492    0.0000 H       1  UNL1        0.0634
     37 H           3.9837   -0.6534    0.0000 H       1  UNL1        0.0791
     38 H           8.1901   -0.7081    0.0000 H       1  UNL1        0.0718
     39 H           4.3040    1.9592    0.0000 H       1  UNL1        0.0441
     40 H           5.4677    2.1761    0.0000 H       1  UNL1        0.2105
     41 H           4.5100   -1.7366    0.0000 H       1  UNL1        0.2100
     42 H           5.8054   -2.6778    0.0000 H       1  UNL1        0.2099
     43 H           8.8534   -1.9938    0.0000 H       1  UNL1        0.0235
     44 H           9.6346   -1.5958    0.0000 H       1  UNL1        0.0235
     45 H           9.2366   -0.8145    0.0000 H       1  UNL1        0.0235
     46 H           9.2705   -1.0910    0.0000 H       1  UNL1        0.0235
     47 H           9.4678   -0.2367    0.0000 H       1  UNL1        0.0235
     48 H           8.6134   -0.0394    0.0000 H       1  UNL1        0.0235
     49 H           7.1952   -1.8546    0.0000 H       1  UNL1        0.0235
     50 H           7.5933   -2.6359    0.0000 H       1  UNL1        0.0235
     51 H           8.3746   -2.2378    0.0000 H       1  UNL1        0.0235
     52 H           4.3716    2.6778    0.0000 H       1  UNL1        0.0238
     53 H           3.7516    3.2978    0.0000 H       1  UNL1        0.0238
     54 H           3.1316    2.6778    0.0000 H       1  UNL1        0.0238
     55 H           7.1007   -1.7366    0.0000 H       1  UNL1        0.2105
@<TRIPOS>BOND
     1    14     1    1
     2     1    19    1
     3     2    15    1
     4     2    23    1
     5     3    19    1
     6     3    26    1
     7     4    21    1
     8     4    27    1
     9    17     5    1
    10     5    40    1
    11    18     6    1
    12     6    41    1
    13    20     7    1
    14     7    42    1
    15    22     8    1
    16     8    55    1
    17     9    23    2
    18    10    26    2
    19    11    27    2
    20    12    13    1
    21    12    14    1
    22    12    15    1
    23    12    18    1
    24    13    16    1
    25    13    19    1
    26    13    22    1
    27    14    17    1
    28    14    23    1
    29    15    20    1
    30    15    32    1
    31    16    20    1
    32    16    24    1
    33    16    33    1
    34    17    21    1
    35    17    25    1
    36    18    21    1
    37    18    34    1
    38    19    35    1
    39    20    36    1
    40    21    37    1
    41    22    26    1
    42    22    38    1
    43    24    28    1
    44    24    29    1
    45    24    30    1
    46    25    27    1
    47    25    31    1
    48    25    39    1
    49    28    43    1
    50    28    44    1
    51    28    45    1
    52    29    49    1
    53    29    50    1
    54    29    51    1
    55    30    46    1
    56    30    47    1
    57    30    48    1
    58    31    52    1
    59    31    53    1
    60    31    54    1
