@<TRIPOS>MOLECULE
IMPHY003294
 95 94 0 0 0
SMALL
GASTEIGER

@<TRIPOS>ATOM
      1 O           2.5369    0.7500    0.0000 O.3     1  UNL1       -0.4806
      2 O           3.4030   -0.7500    0.0000 O.2     1  UNL1       -0.2510
      3 C          16.3933    0.7500    0.0000 C.3     1  UNL1       -0.0531
      4 C          17.2594    0.2500    0.0000 C.3     1  UNL1       -0.0531
      5 C          15.5273    0.2500    0.0000 C.3     1  UNL1       -0.0531
      6 C          18.1254    0.7500    0.0000 C.3     1  UNL1       -0.0531
      7 C          14.6613    0.7500    0.0000 C.3     1  UNL1       -0.0531
      8 C          18.9914    0.2500    0.0000 C.3     1  UNL1       -0.0531
      9 C          13.7953    0.2500    0.0000 C.3     1  UNL1       -0.0531
     10 C          19.8574    0.7500    0.0000 C.3     1  UNL1       -0.0531
     11 C          12.9292    0.7500    0.0000 C.3     1  UNL1       -0.0531
     12 C          20.7235    0.2500    0.0000 C.3     1  UNL1       -0.0531
     13 C          12.0632    0.2500    0.0000 C.3     1  UNL1       -0.0531
     14 C          21.5895    0.7500    0.0000 C.3     1  UNL1       -0.0531
     15 C          11.1972    0.7500    0.0000 C.3     1  UNL1       -0.0531
     16 C          22.4555    0.2500    0.0000 C.3     1  UNL1       -0.0531
     17 C          10.3312    0.2500    0.0000 C.3     1  UNL1       -0.0531
     18 C          23.3215    0.7500    0.0000 C.3     1  UNL1       -0.0531
     19 C           9.4651    0.7500    0.0000 C.3     1  UNL1       -0.0531
     20 C          24.1876    0.2500    0.0000 C.3     1  UNL1       -0.0531
     21 C           8.5991    0.2500    0.0000 C.3     1  UNL1       -0.0531
     22 C          25.0536    0.7500    0.0000 C.3     1  UNL1       -0.0531
     23 C           7.7331    0.7500    0.0000 C.3     1  UNL1       -0.0531
     24 C          25.9196    0.2500    0.0000 C.3     1  UNL1       -0.0531
     25 C           6.8671    0.2500    0.0000 C.3     1  UNL1       -0.0530
     26 C          26.7856    0.7500    0.0000 C.3     1  UNL1       -0.0531
     27 C           6.0010    0.7500    0.0000 C.3     1  UNL1       -0.0526
     28 C          27.6517    0.2500    0.0000 C.3     1  UNL1       -0.0533
     29 C           5.1350    0.2500    0.0000 C.3     1  UNL1       -0.0430
     30 C          28.5177    0.7500    0.0000 C.3     1  UNL1       -0.0559
     31 C           4.2690    0.7500    0.0000 C.3     1  UNL1        0.0448
     32 C          29.3837    0.2500    0.0000 C.3     1  UNL1       -0.0653
     33 C           3.4030    0.2500    0.0000 C.2     1  UNL1        0.3047
     34 H          16.7919    1.2250    0.0000 H       1  UNL1        0.0265
     35 H          15.9948    1.2250    0.0000 H       1  UNL1        0.0265
     36 H          16.8608   -0.2249    0.0000 H       1  UNL1        0.0265
     37 H          17.6579   -0.2249    0.0000 H       1  UNL1        0.0265
     38 H          15.1288   -0.2249    0.0000 H       1  UNL1        0.0265
     39 H          15.9258   -0.2249    0.0000 H       1  UNL1        0.0265
     40 H          18.5239    1.2250    0.0000 H       1  UNL1        0.0265
     41 H          17.7269    1.2250    0.0000 H       1  UNL1        0.0265
     42 H          15.0598    1.2250    0.0000 H       1  UNL1        0.0265
     43 H          14.2628    1.2250    0.0000 H       1  UNL1        0.0265
     44 H          18.5929   -0.2249    0.0000 H       1  UNL1        0.0265
     45 H          19.3899   -0.2249    0.0000 H       1  UNL1        0.0265
     46 H          13.3967   -0.2249    0.0000 H       1  UNL1        0.0265
     47 H          14.1938   -0.2249    0.0000 H       1  UNL1        0.0265
     48 H          20.2560    1.2250    0.0000 H       1  UNL1        0.0265
     49 H          19.4589    1.2250    0.0000 H       1  UNL1        0.0265
     50 H          13.3278    1.2250    0.0000 H       1  UNL1        0.0265
     51 H          12.5307    1.2250    0.0000 H       1  UNL1        0.0265
     52 H          20.3249   -0.2249    0.0000 H       1  UNL1        0.0265
     53 H          21.1220   -0.2249    0.0000 H       1  UNL1        0.0265
     54 H          11.6647   -0.2249    0.0000 H       1  UNL1        0.0265
     55 H          12.4617   -0.2249    0.0000 H       1  UNL1        0.0265
     56 H          21.9880    1.2250    0.0000 H       1  UNL1        0.0265
     57 H          21.1910    1.2250    0.0000 H       1  UNL1        0.0265
     58 H          11.5957    1.2250    0.0000 H       1  UNL1        0.0265
     59 H          10.7987    1.2250    0.0000 H       1  UNL1        0.0265
     60 H          22.0570   -0.2249    0.0000 H       1  UNL1        0.0265
     61 H          22.8540   -0.2249    0.0000 H       1  UNL1        0.0265
     62 H           9.9326   -0.2249    0.0000 H       1  UNL1        0.0265
     63 H          10.7297   -0.2249    0.0000 H       1  UNL1        0.0265
     64 H          23.7201    1.2250    0.0000 H       1  UNL1        0.0265
     65 H          22.9230    1.2250    0.0000 H       1  UNL1        0.0265
     66 H           9.8637    1.2250    0.0000 H       1  UNL1        0.0265
     67 H           9.0666    1.2250    0.0000 H       1  UNL1        0.0265
     68 H          23.7890   -0.2249    0.0000 H       1  UNL1        0.0265
     69 H          24.5861   -0.2249    0.0000 H       1  UNL1        0.0265
     70 H           8.2006   -0.2249    0.0000 H       1  UNL1        0.0265
     71 H           8.9976   -0.2249    0.0000 H       1  UNL1        0.0265
     72 H          25.4521    1.2250    0.0000 H       1  UNL1        0.0265
     73 H          24.6551    1.2250    0.0000 H       1  UNL1        0.0265
     74 H           8.1316    1.2250    0.0000 H       1  UNL1        0.0265
     75 H           7.3346    1.2250    0.0000 H       1  UNL1        0.0265
     76 H          25.5211   -0.2249    0.0000 H       1  UNL1        0.0265
     77 H          26.3182   -0.2249    0.0000 H       1  UNL1        0.0265
     78 H           6.4685   -0.2249    0.0000 H       1  UNL1        0.0265
     79 H           7.2656   -0.2249    0.0000 H       1  UNL1        0.0265
     80 H          27.1842    1.2250    0.0000 H       1  UNL1        0.0265
     81 H          26.3871    1.2250    0.0000 H       1  UNL1        0.0265
     82 H           6.3996    1.2250    0.0000 H       1  UNL1        0.0265
     83 H           5.6025    1.2250    0.0000 H       1  UNL1        0.0265
     84 H          27.2531   -0.2249    0.0000 H       1  UNL1        0.0265
     85 H          28.0502   -0.2249    0.0000 H       1  UNL1        0.0265
     86 H           4.7365   -0.2249    0.0000 H       1  UNL1        0.0270
     87 H           5.5335   -0.2249    0.0000 H       1  UNL1        0.0270
     88 H          28.9162    1.2250    0.0000 H       1  UNL1        0.0263
     89 H          28.1192    1.2250    0.0000 H       1  UNL1        0.0263
     90 H           4.6675    1.2250    0.0000 H       1  UNL1        0.0377
     91 H           3.8705    1.2250    0.0000 H       1  UNL1        0.0377
     92 H          29.0737   -0.2869    0.0000 H       1  UNL1        0.0230
     93 H          29.9207   -0.0600    0.0000 H       1  UNL1        0.0230
     94 H          29.6937    0.7869    0.0000 H       1  UNL1        0.0230
     95 H           2.0000    0.4400    0.0000 H       1  UNL1        0.2951
@<TRIPOS>BOND
     1     1    33    1
     2     1    95    1
     3     2    33    2
     4     3     4    1
     5     3     5    1
     6     3    34    1
     7     3    35    1
     8     4     6    1
     9     4    36    1
    10     4    37    1
    11     5     7    1
    12     5    38    1
    13     5    39    1
    14     6     8    1
    15     6    40    1
    16     6    41    1
    17     7     9    1
    18     7    42    1
    19     7    43    1
    20     8    10    1
    21     8    44    1
    22     8    45    1
    23     9    11    1
    24     9    46    1
    25     9    47    1
    26    10    12    1
    27    10    48    1
    28    10    49    1
    29    11    13    1
    30    11    50    1
    31    11    51    1
    32    12    14    1
    33    12    52    1
    34    12    53    1
    35    13    15    1
    36    13    54    1
    37    13    55    1
    38    14    16    1
    39    14    56    1
    40    14    57    1
    41    15    17    1
    42    15    58    1
    43    15    59    1
    44    16    18    1
    45    16    60    1
    46    16    61    1
    47    17    19    1
    48    17    62    1
    49    17    63    1
    50    18    20    1
    51    18    64    1
    52    18    65    1
    53    19    21    1
    54    19    66    1
    55    19    67    1
    56    20    22    1
    57    20    68    1
    58    20    69    1
    59    21    23    1
    60    21    70    1
    61    21    71    1
    62    22    24    1
    63    22    72    1
    64    22    73    1
    65    23    25    1
    66    23    74    1
    67    23    75    1
    68    24    26    1
    69    24    76    1
    70    24    77    1
    71    25    27    1
    72    25    78    1
    73    25    79    1
    74    26    28    1
    75    26    80    1
    76    26    81    1
    77    27    29    1
    78    27    82    1
    79    27    83    1
    80    28    30    1
    81    28    84    1
    82    28    85    1
    83    29    31    1
    84    29    86    1
    85    29    87    1
    86    30    32    1
    87    30    88    1
    88    30    89    1
    89    31    33    1
    90    31    90    1
    91    31    91    1
    92    32    92    1
    93    32    93    1
    94    32    94    1
