@<TRIPOS>MOLECULE
IMPHY005270
 48 51 0 0 0
SMALL
GASTEIGER

@<TRIPOS>ATOM
      1 O           3.8372   -4.3796    0.0000 O.3     1  UNL1       -0.4914
      2 O           6.4361    3.3622    0.0000 O.3     1  UNL1       -0.4914
      3 O           4.6622    4.3863    0.0000 O.3     1  UNL1       -0.4914
      4 O           5.6405   -3.3199    0.0000 O.3     1  UNL1       -0.5033
      5 N           2.9180    0.3171    0.0000 N.3     1  UNL1       -0.2906
      6 C           3.7841   -0.1829    0.0000 C.3     1  UNL1        0.0403
      7 C           4.6501    0.3171    0.0000 C.3     1  UNL1       -0.0074
      8 C           2.0080   -0.1898    0.0000 C.3     1  UNL1        0.0038
      9 C           3.8001   -1.2244    0.0000 C.ar    1  UNL1       -0.0231
     10 C           2.9180    1.3171    0.0000 C.3     1  UNL1        0.0250
     11 C           2.0000   -1.2314    0.0000 C.3     1  UNL1       -0.0144
     12 C           2.9021   -1.7522    0.0000 C.ar    1  UNL1       -0.0378
     13 C           4.6501    1.3171    0.0000 C.ar    1  UNL1       -0.0375
     14 C           3.7841    1.8171    0.0000 C.ar    1  UNL1       -0.0264
     15 C           4.7520   -1.7451    0.0000 C.ar    1  UNL1       -0.0116
     16 C           2.8937   -2.8372    0.0000 C.ar    1  UNL1       -0.0128
     17 C           5.5601    1.8239    0.0000 C.ar    1  UNL1       -0.0128
     18 C           3.7680    2.8586    0.0000 C.ar    1  UNL1       -0.0116
     19 C           4.7688   -2.8299    0.0000 C.ar    1  UNL1        0.1588
     20 C           3.8334   -3.3796    0.0000 C.ar    1  UNL1        0.1615
     21 C           5.5681    2.8655    0.0000 C.ar    1  UNL1        0.1618
     22 C           4.6660    3.3863    0.0000 C.ar    1  UNL1        0.1618
     23 C           2.9731   -4.8830    0.0000 C.3     1  UNL1        0.0790
     24 C           7.3002    2.8588    0.0000 C.3     1  UNL1        0.0790
     25 C           3.7942    4.8830    0.0000 C.3     1  UNL1        0.0790
     26 H           4.5234   -0.6022    0.0000 H       1  UNL1        0.0516
     27 H           4.8621   -0.2655    0.0000 H       1  UNL1        0.0332
     28 H           5.2607    0.4247    0.0000 H       1  UNL1        0.0332
     29 H           1.8035    0.3955    0.0000 H       1  UNL1        0.0430
     30 H           1.3964   -0.2912    0.0000 H       1  UNL1        0.0430
     31 H           2.7060    1.8997    0.0000 H       1  UNL1        0.0476
     32 H           2.3074    1.2094    0.0000 H       1  UNL1        0.0476
     33 H           1.3900   -1.1206    0.0000 H       1  UNL1        0.0326
     34 H           1.7864   -1.8134    0.0000 H       1  UNL1        0.0326
     35 H           5.2829   -1.4248    0.0000 H       1  UNL1        0.0658
     36 H           2.3556   -3.1451    0.0000 H       1  UNL1        0.0658
     37 H           6.0934    1.5077    0.0000 H       1  UNL1        0.0658
     38 H           3.2275    3.1624    0.0000 H       1  UNL1        0.0658
     39 H           5.6477   -3.9398    0.0000 H       1  UNL1        0.2923
     40 H           2.6610   -4.3472    0.0000 H       1  UNL1        0.0660
     41 H           2.4374   -5.1950    0.0000 H       1  UNL1        0.0660
     42 H           3.2852   -5.4187    0.0000 H       1  UNL1        0.0660
     43 H           6.9881    2.3231    0.0000 H       1  UNL1        0.0660
     44 H           7.8359    2.5468    0.0000 H       1  UNL1        0.0660
     45 H           7.6122    3.3946    0.0000 H       1  UNL1        0.0660
     46 H           4.1022    5.4211    0.0000 H       1  UNL1        0.0660
     47 H           3.2561    5.1909    0.0000 H       1  UNL1        0.0660
     48 H           3.4863    4.3448    0.0000 H       1  UNL1        0.0660
@<TRIPOS>BOND
     1     1    20    1
     2     1    23    1
     3     2    21    1
     4     2    24    1
     5     3    22    1
     6     3    25    1
     7     4    19    1
     8     4    39    1
     9     5     6    1
    10     5     8    1
    11     5    10    1
    12     6     7    1
    13     6     9    1
    14     6    26    1
    15     7    13    1
    16     7    27    1
    17     7    28    1
    18     8    11    1
    19     8    29    1
    20     8    30    1
    21     9    12   ar
    22     9    15   ar
    23    10    14    1
    24    10    31    1
    25    10    32    1
    26    11    12    1
    27    11    33    1
    28    11    34    1
    29    12    16   ar
    30    13    14   ar
    31    13    17   ar
    32    14    18   ar
    33    15    19   ar
    34    15    35    1
    35    16    20   ar
    36    16    36    1
    37    17    21   ar
    38    17    37    1
    39    18    22   ar
    40    18    38    1
    41    19    20   ar
    42    21    22   ar
    43    23    40    1
    44    23    41    1
    45    23    42    1
    46    24    43    1
    47    24    44    1
    48    24    45    1
    49    25    46    1
    50    25    47    1
    51    25    48    1
