@<TRIPOS>MOLECULE
IMPHY017197
 27 27 0 0 0
SMALL
GASTEIGER

@<TRIPOS>ATOM
      1 O           3.7320    2.7500    0.0000 O.2     1  UNL1       -0.3007
      2 C           2.8660    0.2500    0.0000 C.3     1  UNL1       -0.0315
      3 C           2.0000   -0.2500    0.0000 C.3     1  UNL1       -0.0459
      4 C           3.7320   -0.2500    0.0000 C.3     1  UNL1       -0.0459
      5 C           2.8660    1.2500    0.0000 C.3     1  UNL1        0.0145
      6 C           2.0000   -1.2500    0.0000 C.3     1  UNL1       -0.0317
      7 C           3.7320   -1.2500    0.0000 C.3     1  UNL1       -0.0317
      8 C           2.8660   -1.7500    0.0000 C.2     1  UNL1       -0.0766
      9 C           2.0000    1.7500    0.0000 C.3     1  UNL1       -0.0557
     10 C           3.7320    1.7500    0.0000 C.2     1  UNL1        0.1234
     11 C           2.8660   -2.7500    0.0000 C.2     1  UNL1       -0.0994
     12 H           3.4030    0.5600    0.0000 H       1  UNL1        0.0307
     13 H           1.7880    0.3326    0.0000 H       1  UNL1        0.0271
     14 H           1.3894   -0.3577    0.0000 H       1  UNL1        0.0271
     15 H           4.3426   -0.3577    0.0000 H       1  UNL1        0.0271
     16 H           3.9441    0.3326    0.0000 H       1  UNL1        0.0271
     17 H           2.8660    1.8700    0.0000 H       1  UNL1        0.0374
     18 H           1.3894   -1.1423    0.0000 H       1  UNL1        0.0310
     19 H           1.7880   -1.8326    0.0000 H       1  UNL1        0.0310
     20 H           3.9441   -1.8326    0.0000 H       1  UNL1        0.0310
     21 H           4.3426   -1.1423    0.0000 H       1  UNL1        0.0310
     22 H           2.3100    2.2869    0.0000 H       1  UNL1        0.0236
     23 H           1.4631    2.0600    0.0000 H       1  UNL1        0.0236
     24 H           1.6900    1.2131    0.0000 H       1  UNL1        0.0236
     25 H           4.2690    1.4400    0.0000 H       1  UNL1        0.1029
     26 H           2.3291   -3.0600    0.0000 H       1  UNL1        0.0534
     27 H           3.4030   -3.0600    0.0000 H       1  UNL1        0.0534
@<TRIPOS>BOND
     1     1    10    2
     2     2     3    1
     3     2     4    1
     4     2     5    1
     5     2    12    1
     6     3     6    1
     7     3    13    1
     8     3    14    1
     9     4     7    1
    10     4    15    1
    11     4    16    1
    12     5     9    1
    13     5    10    1
    14     5    17    1
    15     6     8    1
    16     6    18    1
    17     6    19    1
    18     7     8    1
    19     7    20    1
    20     7    21    1
    21     8    11    2
    22     9    22    1
    23     9    23    1
    24     9    24    1
    25    10    25    1
    26    11    26    1
    27    11    27    1
