@<TRIPOS>MOLECULE
IMPHY014821
 39 40 0 0 0
SMALL
GASTEIGER

@<TRIPOS>ATOM
      1 O           2.8660   -2.5950    0.0000 O.3     1  UNL1       -0.4773
      2 O           2.0000   -1.0950    0.0000 O.2     1  UNL1       -0.2455
      3 C           4.5981    1.4050    0.0000 C.3     1  UNL1       -0.0313
      4 C           4.5981    0.4050    0.0000 C.3     1  UNL1       -0.0126
      5 C           3.7320    1.9050    0.0000 C.3     1  UNL1       -0.0405
      6 C           3.7320   -0.0950    0.0000 C.3     1  UNL1       -0.0031
      7 C           2.8660    1.4050    0.0000 C.3     1  UNL1       -0.0496
      8 C           2.8660    0.4050    0.0000 C.3     1  UNL1       -0.0452
      9 C           5.4920    1.9397    0.0000 C.3     1  UNL1       -0.0457
     10 C           5.4920   -0.1297    0.0000 C.2     1  UNL1       -0.0811
     11 C           6.3981    1.4258    0.0000 C.3     1  UNL1       -0.0317
     12 C           3.7320    2.9050    0.0000 C.3     1  UNL1       -0.0621
     13 C           6.3981    0.3842    0.0000 C.2     1  UNL1       -0.0762
     14 C           3.7320   -1.0950    0.0000 C.2     1  UNL1        0.0330
     15 C           7.2622   -0.1192    0.0000 C.3     1  UNL1       -0.0438
     16 C           2.8660   -1.5950    0.0000 C.2     1  UNL1        0.3325
     17 C           4.5981   -1.5950    0.0000 C.2     1  UNL1       -0.0884
     18 H           5.1374    1.0992    0.0000 H       1  UNL1        0.0309
     19 H           5.1374    0.7109    0.0000 H       1  UNL1        0.0352
     20 H           4.2690    2.2150    0.0000 H       1  UNL1        0.0301
     21 H           4.2690   -0.4050    0.0000 H       1  UNL1        0.0357
     22 H           2.6540    1.9876    0.0000 H       1  UNL1        0.0268
     23 H           2.2554    1.2973    0.0000 H       1  UNL1        0.0268
     24 H           2.2554    0.5127    0.0000 H       1  UNL1        0.0271
     25 H           2.6540   -0.1776    0.0000 H       1  UNL1        0.0271
     26 H           5.8856    2.4187    0.0000 H       1  UNL1        0.0271
     27 H           5.0874    2.4094    0.0000 H       1  UNL1        0.0271
     28 H           5.4848   -0.7496    0.0000 H       1  UNL1        0.0575
     29 H           7.0089    1.3197    0.0000 H       1  UNL1        0.0310
     30 H           6.6071    2.0095    0.0000 H       1  UNL1        0.0310
     31 H           4.3520    2.9050    0.0000 H       1  UNL1        0.0233
     32 H           3.7320    3.5250    0.0000 H       1  UNL1        0.0233
     33 H           3.1120    2.9050    0.0000 H       1  UNL1        0.0233
     34 H           6.9501   -0.6549    0.0000 H       1  UNL1        0.0274
     35 H           7.7979   -0.4312    0.0000 H       1  UNL1        0.0274
     36 H           7.5742    0.4166    0.0000 H       1  UNL1        0.0274
     37 H           4.5981   -2.2150    0.0000 H       1  UNL1        0.0540
     38 H           5.1350   -1.2850    0.0000 H       1  UNL1        0.0540
     39 H           2.3291   -2.9050    0.0000 H       1  UNL1        0.2954
@<TRIPOS>BOND
     1     1    16    1
     2     1    39    1
     3     2    16    2
     4     3     4    1
     5     3     5    1
     6     3     9    1
     7     3    18    1
     8     4     6    1
     9     4    10    1
    10     4    19    1
    11     5     7    1
    12     5    12    1
    13     5    20    1
    14     6     8    1
    15     6    14    1
    16     6    21    1
    17     7     8    1
    18     7    22    1
    19     7    23    1
    20     8    24    1
    21     8    25    1
    22     9    11    1
    23     9    26    1
    24     9    27    1
    25    10    13    2
    26    10    28    1
    27    11    13    1
    28    11    29    1
    29    11    30    1
    30    12    31    1
    31    12    32    1
    32    12    33    1
    33    13    15    1
    34    14    16    1
    35    14    17    2
    36    15    34    1
    37    15    35    1
    38    15    36    1
    39    17    37    1
    40    17    38    1
