@<TRIPOS>MOLECULE
IMPHY000256
 42 46 0 0 0
SMALL
GASTEIGER

@<TRIPOS>ATOM
      1 O           6.8664   -2.0207    0.0000 O.3     1  UNL1       -0.4598
      2 O           5.3733    2.8876    0.0000 O.3     1  UNL1       -0.4481
      3 O           2.8442   -2.5718    0.0000 O.3     1  UNL1       -0.3874
      4 O           6.3202   -3.5680    0.0000 O.2     1  UNL1       -0.2453
      5 O           7.1285    2.6147    0.0000 O.2     1  UNL1       -0.2449
      6 O           2.0000    2.6175    0.0000 O.2     1  UNL1       -0.4706
      7 C           5.3733   -0.8329    0.0000 C.3     1  UNL1        0.0762
      8 C           4.4723   -0.3990    0.0000 C.2     1  UNL1       -0.0459
      9 C           5.4671   -1.8702    0.0000 C.2     1  UNL1        0.0522
     10 C           3.6027   -0.9724    0.0000 C.3     1  UNL1       -0.0002
     11 C           6.4011   -0.9587    0.0000 C.3     1  UNL1        0.1097
     12 C           4.2498    0.5760    0.0000 C.2     1  UNL1       -0.0421
     13 C           3.6726   -2.0117    0.0000 C.3     1  UNL1        0.0779
     14 C           6.2742   -0.3990    0.0000 C.2     1  UNL1       -0.0654
     15 C           4.8733    1.3578    0.0000 C.2     1  UNL1        0.0142
     16 C           4.6110   -2.4636    0.0000 C.2     1  UNL1       -0.0444
     17 C           5.8733    1.3578    0.0000 C.2     1  UNL1        0.0660
     18 C           6.2283   -2.5722    0.0000 C.2     1  UNL1        0.3363
     19 C           4.5686    2.3040    0.0000 C.3     1  UNL1        0.1573
     20 C           6.4968    0.5760    0.0000 C.2     1  UNL1       -0.0500
     21 C           3.2749    0.7985    0.0000 C.3     1  UNL1       -0.0393
     22 C           6.1780    2.3040    0.0000 C.2     1  UNL1        0.3405
     23 C           3.6180    2.6147    0.0000 C.ar    1  UNL1        0.0349
     24 C           3.3107    3.5663    0.0000 C.ar    1  UNL1       -0.0169
     25 C           2.8080    2.0283    0.0000 C.ar    1  UNL1        0.0987
     26 C           2.3107    3.5680    0.0000 C.ar    1  UNL1        0.0921
     27 H           3.3550   -0.4040    0.0000 H       1  UNL1        0.0339
     28 H           3.0004   -1.1192    0.0000 H       1  UNL1        0.0339
     29 H           7.0041   -0.8145    0.0000 H       1  UNL1        0.0713
     30 H           6.3661   -0.3397    0.0000 H       1  UNL1        0.0713
     31 H           3.1155   -1.7394    0.0000 H       1  UNL1        0.0641
     32 H           6.7590   -0.7855    0.0000 H       1  UNL1        0.0585
     33 H           4.6598   -3.0817    0.0000 H       1  UNL1        0.0603
     34 H           4.4724    2.9165    0.0000 H       1  UNL1        0.0839
     35 H           7.1012    0.7139    0.0000 H       1  UNL1        0.0623
     36 H           3.4128    1.4029    0.0000 H       1  UNL1        0.0278
     37 H           2.6704    0.9364    0.0000 H       1  UNL1        0.0278
     38 H           3.1369    0.1940    0.0000 H       1  UNL1        0.0278
     39 H           2.8881   -3.1903    0.0000 H       1  UNL1        0.2102
     40 H           3.6760    4.0672    0.0000 H       1  UNL1        0.0653
     41 H           2.8069    1.4083    0.0000 H       1  UNL1        0.1033
     42 H           1.9471    4.0702    0.0000 H       1  UNL1        0.1029
@<TRIPOS>BOND
     1     1    11    1
     2     1    18    1
     3     2    19    1
     4     2    22    1
     5    13     3    1
     6     3    39    1
     7     4    18    2
     8     5    22    2
     9     6    25   ar
    10     6    26   ar
    11     7     8    1
    12     7     9    1
    13     7    11    1
    14     7    14    1
    15     8    10    1
    16     8    12    2
    17     9    16    2
    18     9    18    1
    19    10    13    1
    20    10    27    1
    21    10    28    1
    22    11    29    1
    23    11    30    1
    24    12    15    1
    25    12    21    1
    26    13    16    1
    27    13    31    1
    28    14    20    2
    29    14    32    1
    30    15    17    2
    31    15    19    1
    32    16    33    1
    33    17    20    1
    34    17    22    1
    35    19    23    1
    36    19    34    1
    37    20    35    1
    38    21    36    1
    39    21    37    1
    40    21    38    1
    41    23    24   ar
    42    23    25   ar
    43    24    26   ar
    44    24    40    1
    45    25    41    1
    46    26    42    1
