@<TRIPOS>MOLECULE
IMPHY016884
 48 50 0 0 0
SMALL
GASTEIGER

@<TRIPOS>ATOM
      1 O           4.9726    2.3369    0.0000 O.3     1  UNL1       -0.3671
      2 O           4.8780   -2.0872    0.0000 O.3     1  UNL1       -0.4611
      3 O           6.2447   -3.1512    0.0000 O.2     1  UNL1       -0.2512
      4 C           5.2158   -0.3433    0.0000 C.3     1  UNL1        0.0280
      5 C           6.0449    0.2159    0.0000 C.3     1  UNL1       -0.0292
      6 C           3.9948    0.5224    0.0000 C.3     1  UNL1        0.0739
      7 C           3.7360    1.4883    0.0000 C.3     1  UNL1       -0.0120
      8 C           5.7692    1.1772    0.0000 C.3     1  UNL1       -0.0441
      9 C           6.8266   -0.3982    0.0000 C.3     1  UNL1       -0.0372
     10 C           5.4923   -1.2982    0.0000 C.3     1  UNL1        0.1090
     11 C           4.1066    2.8369    0.0000 C.3     1  UNL1        0.0675
     12 C           2.5959    0.0135    0.0000 C.3     1  UNL1       -0.0232
     13 C           6.4858   -1.3320    0.0000 C.3     1  UNL1       -0.0125
     14 C           2.3370    0.9795    0.0000 C.3     1  UNL1       -0.0450
     15 C           3.7359   -0.4436    0.0000 C.3     1  UNL1       -0.0354
     16 C           7.7884   -0.1242    0.0000 C.3     1  UNL1       -0.0620
     17 C           4.3654    3.8028    0.0000 C.3     1  UNL1       -0.0358
     18 C           3.3995    3.5440    0.0000 C.3     1  UNL1       -0.0358
     19 C           5.2542   -3.0138    0.0000 C.2     1  UNL1        0.3042
     20 C           4.6399   -3.8028    0.0000 C.3     1  UNL1        0.0332
     21 H           4.5111   -0.8186    0.0000 H       1  UNL1        0.0367
     22 H           6.7496    0.6912    0.0000 H       1  UNL1        0.0308
     23 H           3.5160    2.3093    0.0000 H       1  UNL1        0.0328
     24 H           5.7743    1.7971    0.0000 H       1  UNL1        0.0272
     25 H           6.3835    1.2609    0.0000 H       1  UNL1        0.0272
     26 H           7.2489   -0.8521    0.0000 H       1  UNL1        0.0302
     27 H           5.7551   -1.8597    0.0000 H       1  UNL1        0.0738
     28 H           2.7908   -0.5750    0.0000 H       1  UNL1        0.0293
     29 H           2.0019   -0.1642    0.0000 H       1  UNL1        0.0293
     30 H           7.0874   -1.4822    0.0000 H       1  UNL1        0.0304
     31 H           6.3997   -1.9460    0.0000 H       1  UNL1        0.0304
     32 H           1.7431    0.8017    0.0000 H       1  UNL1        0.0270
     33 H           2.1421    1.5680    0.0000 H       1  UNL1        0.0270
     34 H           4.3348   -0.6041    0.0000 H       1  UNL1        0.0257
     35 H           3.5754   -1.0424    0.0000 H       1  UNL1        0.0257
     36 H           3.1370   -0.2830    0.0000 H       1  UNL1        0.0257
     37 H           7.6185    0.4721    0.0000 H       1  UNL1        0.0233
     38 H           8.3846    0.0457    0.0000 H       1  UNL1        0.0233
     39 H           7.9582   -0.7205    0.0000 H       1  UNL1        0.0233
     40 H           3.7665    3.9633    0.0000 H       1  UNL1        0.0257
     41 H           4.5259    4.4017    0.0000 H       1  UNL1        0.0257
     42 H           4.9643    3.6424    0.0000 H       1  UNL1        0.0257
     43 H           2.9611    3.1056    0.0000 H       1  UNL1        0.0257
     44 H           2.9611    3.9824    0.0000 H       1  UNL1        0.0257
     45 H           3.8379    3.9824    0.0000 H       1  UNL1        0.0257
     46 H           5.1292   -4.1837    0.0000 H       1  UNL1        0.0342
     47 H           4.2591   -4.2921    0.0000 H       1  UNL1        0.0342
     48 H           4.1507   -3.4220    0.0000 H       1  UNL1        0.0342
@<TRIPOS>BOND
     1     1     6    1
     2     1    11    1
     3    10     2    1
     4     2    19    1
     5     3    19    2
     6     4     5    1
     7     4     6    1
     8     4    10    1
     9     4    21    1
    10     5     8    1
    11     5     9    1
    12     5    22    1
    13     6    12    1
    14     6    15    1
    15     7     8    1
    16     7    11    1
    17     7    14    1
    18     7    23    1
    19     8    24    1
    20     8    25    1
    21     9    13    1
    22     9    16    1
    23     9    26    1
    24    10    13    1
    25    10    27    1
    26    11    17    1
    27    11    18    1
    28    12    14    1
    29    12    28    1
    30    12    29    1
    31    13    30    1
    32    13    31    1
    33    14    32    1
    34    14    33    1
    35    15    34    1
    36    15    35    1
    37    15    36    1
    38    16    37    1
    39    16    38    1
    40    16    39    1
    41    17    40    1
    42    17    41    1
    43    17    42    1
    44    18    43    1
    45    18    44    1
    46    18    45    1
    47    19    20    1
    48    20    46    1
    49    20    47    1
    50    20    48    1
