@<TRIPOS>MOLECULE
IMPHY002247
 35 37 0 0 0
SMALL
GASTEIGER

@<TRIPOS>ATOM
      1 O           3.4188   -0.2681    0.0000 O.3     1  UNL1       -0.4543
      2 O           2.0000   -1.2616    0.0000 O.2     1  UNL1       -0.2456
      3 N           7.4455    0.8681    0.0000 N.3     1  UNL1       -0.3019
      4 C           4.4150   -0.1810    0.0000 C.3     1  UNL1        0.1228
      5 C           5.7877    0.4110    0.0000 C.3     1  UNL1        0.0122
      6 C           6.0465    1.3770    0.0000 C.3     1  UNL1        0.0138
      7 C           4.0730    0.7587    0.0000 C.3     1  UNL1        0.0034
      8 C           4.8099    2.2256    0.0000 C.3     1  UNL1       -0.0440
      9 C           7.1866   -0.0978    0.0000 C.3     1  UNL1        0.0053
     10 C           5.6759    2.7256    0.0000 C.3     1  UNL1       -0.0368
     11 C           4.9886   -1.0001    0.0000 C.3     1  UNL1        0.0090
     12 C           8.3115    1.3681    0.0000 C.3     1  UNL1       -0.0125
     13 C           4.5660   -1.9064    0.0000 C.2     1  UNL1       -0.0621
     14 C           2.9962   -1.1744    0.0000 C.2     1  UNL1        0.3324
     15 C           3.5698   -1.9936    0.0000 C.2     1  UNL1        0.0216
     16 C           5.1395   -2.7256    0.0000 C.3     1  UNL1       -0.0431
     17 H           5.5677   -0.4100    0.0000 H       1  UNL1        0.0352
     18 H           6.2665    2.1980    0.0000 H       1  UNL1        0.0464
     19 H           3.8787    1.3475    0.0000 H       1  UNL1        0.0319
     20 H           3.4872    0.5555    0.0000 H       1  UNL1        0.0319
     21 H           4.5052    2.7655    0.0000 H       1  UNL1        0.0270
     22 H           4.2670    1.9262    0.0000 H       1  UNL1        0.0270
     23 H           6.9917   -0.6863    0.0000 H       1  UNL1        0.0430
     24 H           7.7806   -0.2756    0.0000 H       1  UNL1        0.0430
     25 H           6.2576    2.9401    0.0000 H       1  UNL1        0.0280
     26 H           5.4127    3.2870    0.0000 H       1  UNL1        0.0280
     27 H           5.4965   -1.3558    0.0000 H       1  UNL1        0.0349
     28 H           5.4270   -0.5617    0.0000 H       1  UNL1        0.0349
     29 H           8.6215    0.8312    0.0000 H       1  UNL1        0.0391
     30 H           8.8484    1.6781    0.0000 H       1  UNL1        0.0391
     31 H           8.0015    1.9051    0.0000 H       1  UNL1        0.0391
     32 H           3.3078   -2.5555    0.0000 H       1  UNL1        0.0688
     33 H           4.6317   -3.0812    0.0000 H       1  UNL1        0.0274
     34 H           5.4952   -3.2335    0.0000 H       1  UNL1        0.0274
     35 H           5.6474   -2.3700    0.0000 H       1  UNL1        0.0274
@<TRIPOS>BOND
     1     4     1    1
     2     1    14    1
     3     2    14    2
     4     3     6    1
     5     3     9    1
     6     3    12    1
     7     4     5    1
     8     4     7    1
     9     4    11    1
    10     5     8    1
    11     5     9    1
    12     5    17    1
    13     6     7    1
    14     6    10    1
    15     6    18    1
    16     7    19    1
    17     7    20    1
    18     8    10    1
    19     8    21    1
    20     8    22    1
    21     9    23    1
    22     9    24    1
    23    10    25    1
    24    10    26    1
    25    11    13    1
    26    11    27    1
    27    11    28    1
    28    12    29    1
    29    12    30    1
    30    12    31    1
    31    13    15    2
    32    13    16    1
    33    14    15    1
    34    15    32    1
    35    16    33    1
    36    16    34    1
    37    16    35    1
