@<TRIPOS>MOLECULE
IMPHY002211
 64 65 0 0 0
SMALL
GASTEIGER

@<TRIPOS>ATOM
      1 O           6.0812   -5.0863    0.0000 O.3     1  UNL1       -0.3577
      2 O           2.5369   -5.2816    0.0000 O.3     1  UNL1       -0.3917
      3 O           8.1648    5.2447    0.0000 O.3     1  UNL1       -0.3907
      4 C           5.1350   -4.7816    0.0000 C.3     1  UNL1        0.0918
      5 C           4.2690   -3.2816    0.0000 C.3     1  UNL1       -0.0088
      6 C           5.1350   -3.7816    0.0000 C.2     1  UNL1       -0.0338
      7 C           4.2690   -5.2816    0.0000 C.3     1  UNL1        0.0061
      8 C           3.4030   -3.7816    0.0000 C.3     1  UNL1       -0.0178
      9 C           3.4030   -4.7816    0.0000 C.3     1  UNL1        0.0589
     10 C           6.0812   -3.4769    0.0000 C.2     1  UNL1       -0.0491
     11 C           6.6648   -4.2816    0.0000 C.3     1  UNL1        0.0994
     12 C           5.1350   -5.7816    0.0000 C.3     1  UNL1       -0.0318
     13 C           3.7690   -2.4156    0.0000 C.3     1  UNL1       -0.0559
     14 C           4.7690   -2.4156    0.0000 C.3     1  UNL1       -0.0559
     15 C           7.6648   -4.2816    0.0000 C.2     1  UNL1       -0.0404
     16 C           8.1648   -5.1476    0.0000 C.3     1  UNL1       -0.0408
     17 C           8.1648   -3.4156    0.0000 C.2     1  UNL1       -0.0600
     18 C           7.6648   -2.5496    0.0000 C.2     1  UNL1       -0.0615
     19 C           8.1648   -1.6835    0.0000 C.2     1  UNL1       -0.0588
     20 C           7.6648   -0.8175    0.0000 C.2     1  UNL1       -0.0504
     21 C           6.6648   -0.8175    0.0000 C.3     1  UNL1       -0.0397
     22 C           8.1648    0.0485    0.0000 C.2     1  UNL1       -0.0588
     23 C           7.6648    0.9145    0.0000 C.2     1  UNL1       -0.0615
     24 C           8.1648    1.7806    0.0000 C.2     1  UNL1       -0.0617
     25 C           7.6648    2.6466    0.0000 C.2     1  UNL1       -0.0606
     26 C           8.1648    3.5126    0.0000 C.2     1  UNL1       -0.0476
     27 C           7.6648    4.3787    0.0000 C.3     1  UNL1        0.0653
     28 C           9.1648    3.5126    0.0000 C.3     1  UNL1       -0.0413
     29 H           3.8705   -5.7566    0.0000 H       1  UNL1        0.0321
     30 H           4.6675   -5.7566    0.0000 H       1  UNL1        0.0321
     31 H           3.1909   -3.1990    0.0000 H       1  UNL1        0.0298
     32 H           2.7924   -3.8893    0.0000 H       1  UNL1        0.0298
     33 H           3.4030   -5.4016    0.0000 H       1  UNL1        0.0594
     34 H           6.2738   -2.8876    0.0000 H       1  UNL1        0.0601
     35 H           6.9466   -4.8339    0.0000 H       1  UNL1        0.0688
     36 H           4.5150   -5.7816    0.0000 H       1  UNL1        0.0261
     37 H           5.1350   -6.4016    0.0000 H       1  UNL1        0.0261
     38 H           5.7550   -5.7816    0.0000 H       1  UNL1        0.0261
     39 H           5.3059   -2.7256    0.0000 H       1  UNL1        0.0238
     40 H           5.0790   -1.8786    0.0000 H       1  UNL1        0.0238
     41 H           4.2320   -2.1056    0.0000 H       1  UNL1        0.0238
     42 H           4.3059   -2.1056    0.0000 H       1  UNL1        0.0238
     43 H           3.4590   -1.8786    0.0000 H       1  UNL1        0.0238
     44 H           3.2320   -2.7256    0.0000 H       1  UNL1        0.0238
     45 H           2.0000   -4.9716    0.0000 H       1  UNL1        0.2098
     46 H           7.6279   -5.4576    0.0000 H       1  UNL1        0.0275
     47 H           8.4748   -5.6846    0.0000 H       1  UNL1        0.0275
     48 H           8.7018   -4.8376    0.0000 H       1  UNL1        0.0275
     49 H           8.7848   -3.4156    0.0000 H       1  UNL1        0.0618
     50 H           7.0448   -2.5496    0.0000 H       1  UNL1        0.0618
     51 H           8.7848   -1.6835    0.0000 H       1  UNL1        0.0620
     52 H           6.6648   -0.1975    0.0000 H       1  UNL1        0.0278
     53 H           6.0448   -0.8175    0.0000 H       1  UNL1        0.0278
     54 H           6.6648   -1.4375    0.0000 H       1  UNL1        0.0278
     55 H           8.7848    0.0485    0.0000 H       1  UNL1        0.0620
     56 H           7.0448    0.9145    0.0000 H       1  UNL1        0.0618
     57 H           8.7848    1.7806    0.0000 H       1  UNL1        0.0618
     58 H           7.0448    2.6466    0.0000 H       1  UNL1        0.0618
     59 H           7.1899    4.7772    0.0000 H       1  UNL1        0.0604
     60 H           7.1899    3.9801    0.0000 H       1  UNL1        0.0604
     61 H           9.1648    2.8926    0.0000 H       1  UNL1        0.0275
     62 H           9.7848    3.5126    0.0000 H       1  UNL1        0.0275
     63 H           9.1648    4.1326    0.0000 H       1  UNL1        0.0275
     64 H           7.8548    5.7816    0.0000 H       1  UNL1        0.2098
@<TRIPOS>BOND
     1     1     4    1
     2     1    11    1
     3     9     2    1
     4     2    45    1
     5     3    27    1
     6     3    64    1
     7     4     6    1
     8     4     7    1
     9     4    12    1
    10     5     6    1
    11     5     8    1
    12     5    13    1
    13     5    14    1
    14     6    10    2
    15     7     9    1
    16     7    29    1
    17     7    30    1
    18     8     9    1
    19     8    31    1
    20     8    32    1
    21     9    33    1
    22    10    11    1
    23    10    34    1
    24    11    15    1
    25    11    35    1
    26    12    36    1
    27    12    37    1
    28    12    38    1
    29    13    42    1
    30    13    43    1
    31    13    44    1
    32    14    39    1
    33    14    40    1
    34    14    41    1
    35    15    16    1
    36    15    17    2
    37    16    46    1
    38    16    47    1
    39    16    48    1
    40    17    18    1
    41    17    49    1
    42    18    19    2
    43    18    50    1
    44    19    20    1
    45    19    51    1
    46    20    21    1
    47    20    22    2
    48    21    52    1
    49    21    53    1
    50    21    54    1
    51    22    23    1
    52    22    55    1
    53    23    24    2
    54    23    56    1
    55    24    25    1
    56    24    57    1
    57    25    26    2
    58    25    58    1
    59    26    27    1
    60    26    28    1
    61    27    59    1
    62    27    60    1
    63    28    61    1
    64    28    62    1
    65    28    63    1
