@<TRIPOS>MOLECULE
IMPHY014029
 42 43 0 0 0
SMALL
GASTEIGER

@<TRIPOS>ATOM
      1 O           3.7690    0.3660    0.0000 O.3     1  UNL1       -0.3863
      2 O           2.5369   -0.5000    0.0000 O.3     1  UNL1       -0.3922
      3 O           9.5312    1.5241    0.0000 O.2     1  UNL1       -0.2927
      4 C           6.8671   -0.0000    0.0000 C.3     1  UNL1       -0.0074
      5 C           5.1350   -0.0000    0.0000 C.3     1  UNL1       -0.0092
      6 C           6.0010   -0.5000    0.0000 C.3     1  UNL1       -0.0381
      7 C           7.7610   -0.5347    0.0000 C.3     1  UNL1       -0.0278
      8 C           6.8671    1.0000    0.0000 C.2     1  UNL1       -0.0601
      9 C           5.1350    1.0000    0.0000 C.3     1  UNL1       -0.0438
     10 C           6.0010    1.5000    0.0000 C.3     1  UNL1       -0.0305
     11 C           4.2690   -0.5000    0.0000 C.3     1  UNL1        0.0890
     12 C           6.8671   -1.0000    0.0000 C.3     1  UNL1       -0.0556
     13 C           8.6671   -0.0208    0.0000 C.3     1  UNL1        0.0132
     14 C           7.7610    1.5346    0.0000 C.2     1  UNL1       -0.0194
     15 C           7.7494   -1.5346    0.0000 C.3     1  UNL1       -0.0612
     16 C           8.6671    1.0208    0.0000 C.2     1  UNL1        0.1564
     17 C           3.4030   -1.0000    0.0000 C.3     1  UNL1        0.0729
     18 C           4.7690   -1.3661    0.0000 C.3     1  UNL1       -0.0337
     19 H           4.5981    0.3100    0.0000 H       1  UNL1        0.0329
     20 H           5.6025   -0.9750    0.0000 H       1  UNL1        0.0277
     21 H           6.3996   -0.9750    0.0000 H       1  UNL1        0.0277
     22 H           8.2949   -0.8499    0.0000 H       1  UNL1        0.0311
     23 H           4.9230    1.5826    0.0000 H       1  UNL1        0.0272
     24 H           4.5244    0.8923    0.0000 H       1  UNL1        0.0272
     25 H           6.3996    1.9749    0.0000 H       1  UNL1        0.0310
     26 H           5.6025    1.9749    0.0000 H       1  UNL1        0.0310
     27 H           6.2471   -1.0000    0.0000 H       1  UNL1        0.0238
     28 H           6.8671   -1.6200    0.0000 H       1  UNL1        0.0238
     29 H           7.4871   -1.0000    0.0000 H       1  UNL1        0.0238
     30 H           8.8761   -0.6045    0.0000 H       1  UNL1        0.0348
     31 H           9.2779    0.0852    0.0000 H       1  UNL1        0.0348
     32 H           7.7538    2.1546    0.0000 H       1  UNL1        0.0652
     33 H           7.1295   -1.5275    0.0000 H       1  UNL1        0.0233
     34 H           7.7423   -2.1546    0.0000 H       1  UNL1        0.0233
     35 H           8.3694   -1.5418    0.0000 H       1  UNL1        0.0233
     36 H           3.0044   -1.4750    0.0000 H       1  UNL1        0.0586
     37 H           3.8015   -1.4750    0.0000 H       1  UNL1        0.0586
     38 H           4.2320   -1.6761    0.0000 H       1  UNL1        0.0258
     39 H           5.0790   -1.9030    0.0000 H       1  UNL1        0.0258
     40 H           5.3059   -1.0561    0.0000 H       1  UNL1        0.0258
     41 H           3.1490    0.3660    0.0000 H       1  UNL1        0.2103
     42 H           2.0000   -0.8100    0.0000 H       1  UNL1        0.2095
@<TRIPOS>BOND
     1    11     1    1
     2     1    41    1
     3     2    17    1
     4     2    42    1
     5     3    16    2
     6     4     6    1
     7     4     7    1
     8     4     8    1
     9     4    12    1
    10     5     6    1
    11     5     9    1
    12     5    11    1
    13     5    19    1
    14     6    20    1
    15     6    21    1
    16     7    13    1
    17     7    15    1
    18     7    22    1
    19     8    10    1
    20     8    14    2
    21     9    10    1
    22     9    23    1
    23     9    24    1
    24    10    25    1
    25    10    26    1
    26    11    17    1
    27    11    18    1
    28    12    27    1
    29    12    28    1
    30    12    29    1
    31    13    16    1
    32    13    30    1
    33    13    31    1
    34    14    16    1
    35    14    32    1
    36    15    33    1
    37    15    34    1
    38    15    35    1
    39    17    36    1
    40    17    37    1
    41    18    38    1
    42    18    39    1
    43    18    40    1
