@<TRIPOS>MOLECULE
IMPHY008289
 56 59 0 0 0
SMALL
GASTEIGER

@<TRIPOS>ATOM
      1 O           4.5981    0.1550    0.0000 O.3     1  UNL1       -0.3313
      2 O           6.3301    0.1550    0.0000 O.3     1  UNL1       -0.4604
      3 O           4.5981   -2.8450    0.0000 O.3     1  UNL1       -0.3864
      4 O           2.8660   -1.8450    0.0000 O.3     1  UNL1       -0.3865
      5 O           6.3301   -1.8450    0.0000 O.3     1  UNL1       -0.3829
      6 O           2.0000   -0.3450    0.0000 O.3     1  UNL1       -0.3924
      7 O           8.9282    1.6550    0.0000 O.3     1  UNL1       -0.4827
      8 O           8.9282   -1.3450    0.0000 O.2     1  UNL1       -0.2917
      9 O          10.6766   -1.3796    0.0000 O.3     1  UNL1       -0.5058
     10 O          12.4583    1.6792    0.0000 O.3     1  UNL1       -0.4949
     11 C           4.5981   -1.8450    0.0000 C.3     1  UNL1        0.1152
     12 C           3.7320   -1.3450    0.0000 C.3     1  UNL1        0.1120
     13 C           5.4641   -1.3450    0.0000 C.3     1  UNL1        0.1454
     14 C           3.7320   -0.3450    0.0000 C.3     1  UNL1        0.1140
     15 C           5.4641   -0.3450    0.0000 C.3     1  UNL1        0.2308
     16 C           2.8660    0.1550    0.0000 C.3     1  UNL1        0.0731
     17 C           8.0622    1.1550    0.0000 C.3     1  UNL1        0.1355
     18 C           6.3301    1.1550    0.0000 C.ar    1  UNL1        0.1307
     19 C           7.1962    1.6550    0.0000 C.ar    1  UNL1        0.0348
     20 C           8.0622    0.1550    0.0000 C.3     1  UNL1        0.0521
     21 C           5.4641    1.6550    0.0000 C.ar    1  UNL1       -0.0194
     22 C           8.9282   -0.3450    0.0000 C.2     1  UNL1        0.1740
     23 C           7.1962    2.6550    0.0000 C.ar    1  UNL1       -0.0516
     24 C           9.7942    0.1550    0.0000 C.ar    1  UNL1        0.1007
     25 C           9.7942    1.1550    0.0000 C.ar    1  UNL1        0.1389
     26 C           5.4641    2.6550    0.0000 C.ar    1  UNL1       -0.0583
     27 C           6.3301    3.1550    0.0000 C.ar    1  UNL1       -0.0612
     28 C          10.6882   -0.3797    0.0000 C.ar    1  UNL1        0.1343
     29 C          10.6882    1.6897    0.0000 C.ar    1  UNL1        0.0227
     30 C          11.5942    1.1758    0.0000 C.ar    1  UNL1        0.1271
     31 C          11.5942    0.1342    0.0000 C.ar    1  UNL1        0.0225
     32 C          12.4545    2.6791    0.0000 C.3     1  UNL1        0.0788
     33 H           5.1350   -2.1550    0.0000 H       1  UNL1        0.0648
     34 H           3.7320   -1.9650    0.0000 H       1  UNL1        0.0647
     35 H           6.0010   -1.0350    0.0000 H       1  UNL1        0.0683
     36 H           3.7320    0.2750    0.0000 H       1  UNL1        0.0647
     37 H           5.4641    0.2750    0.0000 H       1  UNL1        0.1084
     38 H           3.2646    0.6299    0.0000 H       1  UNL1        0.0584
     39 H           2.4675    0.6299    0.0000 H       1  UNL1        0.0584
     40 H           7.5252    0.8450    0.0000 H       1  UNL1        0.0790
     41 H           5.1350   -3.1550    0.0000 H       1  UNL1        0.2100
     42 H           2.8660   -2.4650    0.0000 H       1  UNL1        0.2100
     43 H           6.8671   -1.5350    0.0000 H       1  UNL1        0.2102
     44 H           7.4516    0.2627    0.0000 H       1  UNL1        0.0385
     45 H           7.8501   -0.4276    0.0000 H       1  UNL1        0.0385
     46 H           4.9272    1.3450    0.0000 H       1  UNL1        0.0654
     47 H           7.7331    2.9650    0.0000 H       1  UNL1        0.0623
     48 H           2.0000   -0.9650    0.0000 H       1  UNL1        0.2095
     49 H           4.9272    2.9650    0.0000 H       1  UNL1        0.0619
     50 H           6.3301    3.7750    0.0000 H       1  UNL1        0.0618
     51 H          10.6810    2.3096    0.0000 H       1  UNL1        0.0691
     52 H          12.1300   -0.1779    0.0000 H       1  UNL1        0.0691
     53 H          11.2099   -1.6958    0.0000 H       1  UNL1        0.2922
     54 H          13.0745    2.6815    0.0000 H       1  UNL1        0.0660
     55 H          12.4521    3.2991    0.0000 H       1  UNL1        0.0660
     56 H          11.8345    2.6768    0.0000 H       1  UNL1        0.0660
@<TRIPOS>BOND
     1     1    14    1
     2     1    15    1
     3     2    15    1
     4     2    18    1
     5     3    11    1
     6     3    41    1
     7     4    12    1
     8     4    42    1
     9     5    13    1
    10     5    43    1
    11     6    16    1
    12     6    48    1
    13     7    17    1
    14     7    25    1
    15     8    22    2
    16     9    28    1
    17     9    53    1
    18    10    30    1
    19    10    32    1
    20    11    12    1
    21    11    13    1
    22    11    33    1
    23    12    14    1
    24    12    34    1
    25    13    15    1
    26    13    35    1
    27    14    16    1
    28    14    36    1
    29    15    37    1
    30    16    38    1
    31    16    39    1
    32    17    19    1
    33    17    20    1
    34    17    40    1
    35    18    19   ar
    36    18    21   ar
    37    19    23   ar
    38    20    22    1
    39    20    44    1
    40    20    45    1
    41    21    26   ar
    42    21    46    1
    43    22    24    1
    44    23    27   ar
    45    23    47    1
    46    24    25   ar
    47    24    28   ar
    48    25    29   ar
    49    26    27   ar
    50    26    49    1
    51    27    50    1
    52    28    31   ar
    53    29    30   ar
    54    29    51    1
    55    30    31   ar
    56    31    52    1
    57    32    54    1
    58    32    55    1
    59    32    56    1
