@<TRIPOS>MOLECULE
IMPHY003142
 69 72 0 0 0
SMALL
GASTEIGER

@<TRIPOS>ATOM
      1 O           5.4641    1.2500    0.0000 O.3     1  UNL1       -0.4539
      2 O           4.5981   -1.2500    0.0000 O.3     1  UNL1       -0.4507
      3 O           3.7320    1.2500    0.0000 O.3     1  UNL1       -0.4573
      4 O           8.0622   -0.2500    0.0000 O.3     1  UNL1       -0.4610
      5 O           7.1962    1.2500    0.0000 O.2     1  UNL1       -0.2449
      6 O           2.8660   -1.2500    0.0000 O.2     1  UNL1       -0.2449
      7 O           2.0000    1.2500    0.0000 O.2     1  UNL1       -0.2450
      8 O           8.9282    1.2500    0.0000 O.2     1  UNL1       -0.2450
      9 C           5.4641    0.2500    0.0000 C.3     1  UNL1        0.1464
     10 C           4.5981   -0.2500    0.0000 C.3     1  UNL1        0.1739
     11 C           6.3301   -0.2500    0.0000 C.3     1  UNL1        0.0224
     12 C           3.7320    0.2500    0.0000 C.3     1  UNL1        0.1332
     13 C           7.1962    0.2500    0.0000 C.3     1  UNL1        0.0963
     14 C           6.3301    1.7500    0.0000 C.2     1  UNL1        0.3396
     15 C           3.7320   -1.7500    0.0000 C.2     1  UNL1        0.3397
     16 C           6.3301    2.7500    0.0000 C.ar    1  UNL1        0.0590
     17 C           3.7320   -2.7500    0.0000 C.ar    1  UNL1        0.0590
     18 C           2.8660    1.7500    0.0000 C.2     1  UNL1        0.3393
     19 C           8.9282    0.2500    0.0000 C.2     1  UNL1        0.3392
     20 C           2.8660    2.7500    0.0000 C.ar    1  UNL1        0.0590
     21 C           7.1962    3.2500    0.0000 C.ar    1  UNL1       -0.0478
     22 C           5.4641    3.2500    0.0000 C.ar    1  UNL1       -0.0478
     23 C           9.7942   -0.2500    0.0000 C.ar    1  UNL1        0.0590
     24 C           2.8660   -3.2500    0.0000 C.ar    1  UNL1       -0.0478
     25 C           4.5981   -3.2500    0.0000 C.ar    1  UNL1       -0.0478
     26 C           7.1962    4.2500    0.0000 C.ar    1  UNL1       -0.0610
     27 C           5.4641    4.2500    0.0000 C.ar    1  UNL1       -0.0610
     28 C           3.7320    3.2500    0.0000 C.ar    1  UNL1       -0.0478
     29 C           2.0000    3.2500    0.0000 C.ar    1  UNL1       -0.0478
     30 C           2.8660   -4.2500    0.0000 C.ar    1  UNL1       -0.0610
     31 C           4.5981   -4.2500    0.0000 C.ar    1  UNL1       -0.0610
     32 C           6.3301    4.7500    0.0000 C.ar    1  UNL1       -0.0617
     33 C           9.7942   -1.2500    0.0000 C.ar    1  UNL1       -0.0478
     34 C          10.6603    0.2500    0.0000 C.ar    1  UNL1       -0.0478
     35 C           3.7320   -4.7500    0.0000 C.ar    1  UNL1       -0.0617
     36 C           3.7320    4.2500    0.0000 C.ar    1  UNL1       -0.0610
     37 C           2.0000    4.2500    0.0000 C.ar    1  UNL1       -0.0610
     38 C          10.6603   -1.7500    0.0000 C.ar    1  UNL1       -0.0610
     39 C          11.5263   -0.2500    0.0000 C.ar    1  UNL1       -0.0610
     40 C           2.8660    4.7500    0.0000 C.ar    1  UNL1       -0.0617
     41 C          11.5263   -1.2500    0.0000 C.ar    1  UNL1       -0.0617
     42 H           6.2002    0.6750    0.0000 H       1  UNL1        0.0774
     43 H           5.3342   -0.6750    0.0000 H       1  UNL1        0.0806
     44 H           5.9316   -0.7249    0.0000 H       1  UNL1        0.0335
     45 H           6.7287   -0.7249    0.0000 H       1  UNL1        0.0335
     46 H           3.1215    0.3577    0.0000 H       1  UNL1        0.0736
     47 H           3.5200   -0.3326    0.0000 H       1  UNL1        0.0736
     48 H           7.5947    0.7249    0.0000 H       1  UNL1        0.0699
     49 H           6.7976    0.7249    0.0000 H       1  UNL1        0.0699
     50 H           7.7331    2.9400    0.0000 H       1  UNL1        0.0626
     51 H           4.9272    2.9400    0.0000 H       1  UNL1        0.0626
     52 H           2.3291   -2.9400    0.0000 H       1  UNL1        0.0626
     53 H           5.1350   -2.9400    0.0000 H       1  UNL1        0.0626
     54 H           7.7331    4.5600    0.0000 H       1  UNL1        0.0618
     55 H           4.9272    4.5600    0.0000 H       1  UNL1        0.0618
     56 H           4.2690    2.9400    0.0000 H       1  UNL1        0.0626
     57 H           1.4631    2.9400    0.0000 H       1  UNL1        0.0626
     58 H           2.3291   -4.5600    0.0000 H       1  UNL1        0.0618
     59 H           5.1350   -4.5600    0.0000 H       1  UNL1        0.0618
     60 H           6.3301    5.3700    0.0000 H       1  UNL1        0.0618
     61 H           9.2573   -1.5600    0.0000 H       1  UNL1        0.0626
     62 H          10.6603    0.8700    0.0000 H       1  UNL1        0.0626
     63 H           3.7320   -5.3700    0.0000 H       1  UNL1        0.0618
     64 H           4.2690    4.5600    0.0000 H       1  UNL1        0.0618
     65 H           1.4631    4.5600    0.0000 H       1  UNL1        0.0618
     66 H          10.6603   -2.3700    0.0000 H       1  UNL1        0.0618
     67 H          12.0632    0.0600    0.0000 H       1  UNL1        0.0618
     68 H           2.8660    5.3700    0.0000 H       1  UNL1        0.0618
     69 H          12.0632   -1.5600    0.0000 H       1  UNL1        0.0618
@<TRIPOS>BOND
     1     1     9    1
     2     1    14    1
     3     2    10    1
     4     2    15    1
     5     3    12    1
     6     3    18    1
     7     4    13    1
     8     4    19    1
     9     5    14    2
    10     6    15    2
    11     7    18    2
    12     8    19    2
    13     9    10    1
    14     9    11    1
    15     9    42    1
    16    10    12    1
    17    10    43    1
    18    11    13    1
    19    11    44    1
    20    11    45    1
    21    12    46    1
    22    12    47    1
    23    13    48    1
    24    13    49    1
    25    14    16    1
    26    15    17    1
    27    16    21   ar
    28    16    22   ar
    29    17    24   ar
    30    17    25   ar
    31    18    20    1
    32    19    23    1
    33    20    28   ar
    34    20    29   ar
    35    21    26   ar
    36    21    50    1
    37    22    27   ar
    38    22    51    1
    39    23    33   ar
    40    23    34   ar
    41    24    30   ar
    42    24    52    1
    43    25    31   ar
    44    25    53    1
    45    26    32   ar
    46    26    54    1
    47    27    32   ar
    48    27    55    1
    49    28    36   ar
    50    28    56    1
    51    29    37   ar
    52    29    57    1
    53    30    35   ar
    54    30    58    1
    55    31    35   ar
    56    31    59    1
    57    32    60    1
    58    33    38   ar
    59    33    61    1
    60    34    39   ar
    61    34    62    1
    62    35    63    1
    63    36    40   ar
    64    36    64    1
    65    37    40   ar
    66    37    65    1
    67    38    41   ar
    68    38    66    1
    69    39    41   ar
    70    39    67    1
    71    40    68    1
    72    41    69    1
