@<TRIPOS>MOLECULE
IMPHY007002
 48 54 0 0 0
SMALL
GASTEIGER

@<TRIPOS>ATOM
      1 O           6.0668    2.6314    0.0000 O.co2   1  UNL1       -0.7747
      2 O           6.8022   -2.4736    0.0000 O.3     1  UNL1       -0.3717
      3 O           3.5351   -2.5115    0.0000 O.2     1  UNL1       -0.2752
      4 N           5.8097    1.6651    0.0000 N.3     1  UNL1        0.2230
      5 N           4.4011   -1.0873    0.0000 N.am    1  UNL1       -0.2666
      6 C           5.2014    0.2990    0.0000 C.3     1  UNL1        0.0641
      7 C           6.0018    0.7611    0.0000 C.3     1  UNL1       -0.0090
      8 C           5.2014   -0.6252    0.0000 C.3     1  UNL1        0.0518
      9 C           6.0018   -1.0873    0.0000 C.3     1  UNL1        0.0127
     10 C           6.8022   -0.6252    0.0000 C.3     1  UNL1       -0.0029
     11 C           6.8022    0.2990    0.0000 C.3     1  UNL1       -0.0017
     12 C           4.5146    0.9174    0.0000 C.3     1  UNL1        0.0040
     13 C           4.8906    1.7617    0.0000 C.3     1  UNL1       -0.0310
     14 C           3.6007    0.2990    0.0000 C.ar    1  UNL1       -0.0125
     15 C           7.6266    0.8638    0.0000 C.3     1  UNL1       -0.0102
     16 C           6.0018   -2.0115    0.0000 C.3     1  UNL1        0.0724
     17 C           7.6625   -0.9628    0.0000 C.2     1  UNL1       -0.0233
     18 C           3.6007   -0.6252    0.0000 C.ar    1  UNL1        0.0406
     19 C           5.2014   -2.4736    0.0000 C.3     1  UNL1        0.0511
     20 C           4.4011   -2.0115    0.0000 C.2     1  UNL1        0.2225
     21 C           7.9758   -1.6007    0.0000 C.2     1  UNL1       -0.0542
     22 C           2.8004    0.7611    0.0000 C.ar    1  UNL1       -0.0560
     23 C           7.5239   -2.4633    0.0000 C.3     1  UNL1        0.0667
     24 C           2.8004   -1.0873    0.0000 C.ar    1  UNL1       -0.0400
     25 C           2.0000    0.2990    0.0000 C.ar    1  UNL1       -0.0614
     26 C           2.0000   -0.6252    0.0000 C.ar    1  UNL1       -0.0600
     27 H           6.7442    1.1749    0.0000 H       1  UNL1        0.0860
     28 H           5.2040   -1.4752    0.0000 H       1  UNL1        0.0519
     29 H           6.7379   -1.5123    0.0000 H       1  UNL1        0.0350
     30 H           7.5045   -0.1464    0.0000 H       1  UNL1        0.0353
     31 H           7.4128    0.1913    0.0000 H       1  UNL1        0.0326
     32 H           7.0142    0.8816    0.0000 H       1  UNL1        0.0326
     33 H           3.9777    1.2274    0.0000 H       1  UNL1        0.0328
     34 H           4.1502    0.4158    0.0000 H       1  UNL1        0.0328
     35 H           5.0194    2.3681    0.0000 H       1  UNL1        0.0814
     36 H           4.3009    1.9532    0.0000 H       1  UNL1        0.0814
     37 H           8.2418    0.7862    0.0000 H       1  UNL1        0.0863
     38 H           7.7922    1.4612    0.0000 H       1  UNL1        0.0863
     39 H           5.9945   -2.8614    0.0000 H       1  UNL1        0.0604
     40 H           4.8029   -2.9485    0.0000 H       1  UNL1        0.0384
     41 H           5.6000   -2.9485    0.0000 H       1  UNL1        0.0384
     42 H           8.5957   -1.6088    0.0000 H       1  UNL1        0.0596
     43 H           2.8004    1.3811    0.0000 H       1  UNL1        0.0621
     44 H           7.4305   -3.0762    0.0000 H       1  UNL1        0.0604
     45 H           8.1131   -2.6565    0.0000 H       1  UNL1        0.0604
     46 H           2.8004   -1.7073    0.0000 H       1  UNL1        0.0636
     47 H           1.4631    0.6090    0.0000 H       1  UNL1        0.0618
     48 H           1.4631   -0.9352    0.0000 H       1  UNL1        0.0618
@<TRIPOS>UNITY_ATOM_ATTR
1 1
charge -1
4 1
charge 1
@<TRIPOS>BOND
     1     1     4    1
     2     2    16    1
     3     2    23    1
     4     3    20    2
     5     4     7    1
     6     4    13    1
     7     4    15    1
     8     5     8    1
     9     5    18    1
    10     5    20   am
    11     6     7    1
    12     6     8    1
    13     6    12    1
    14     6    14    1
    15     7    11    1
    16     7    27    1
    17     8     9    1
    18     8    28    1
    19     9    10    1
    20     9    16    1
    21     9    29    1
    22    10    11    1
    23    10    17    1
    24    10    30    1
    25    11    31    1
    26    11    32    1
    27    12    13    1
    28    12    33    1
    29    12    34    1
    30    13    35    1
    31    13    36    1
    32    14    18   ar
    33    14    22   ar
    34    15    17    1
    35    15    37    1
    36    15    38    1
    37    16    19    1
    38    16    39    1
    39    17    21    2
    40    18    24   ar
    41    19    20    1
    42    19    40    1
    43    19    41    1
    44    21    23    1
    45    21    42    1
    46    22    25   ar
    47    22    43    1
    48    23    44    1
    49    23    45    1
    50    24    26   ar
    51    24    46    1
    52    25    26   ar
    53    25    47    1
    54    26    48    1
