@<TRIPOS>MOLECULE
IMPHY000313
 48 50 0 0 0
SMALL
GASTEIGER

@<TRIPOS>ATOM
      1 O           6.3580   -0.4226    0.0000 O.2     1  UNL1       -0.4470
      2 O           4.5981   -1.3879    0.0000 O.3     1  UNL1       -0.4884
      3 O           8.1282    1.6362    0.0000 O.3     1  UNL1       -0.4883
      4 O           2.8660   -0.3879    0.0000 O.3     1  UNL1       -0.4883
      5 O           2.8660    1.6121    0.0000 O.3     1  UNL1       -0.4884
      6 O           4.5981    2.6121    0.0000 O.3     1  UNL1       -0.5027
      7 O           6.3465    2.6467    0.0000 O.2     1  UNL1       -0.2830
      8 O          10.7205   -1.9221    0.0000 O.3     1  UNL1       -0.4951
      9 C           5.4641    1.1121    0.0000 C.ar    1  UNL1        0.1165
     10 C           5.4641    0.1121    0.0000 C.ar    1  UNL1        0.1884
     11 C           7.2641    0.0913    0.0000 C.ar    1  UNL1        0.1810
     12 C           4.5981   -0.3879    0.0000 C.ar    1  UNL1        0.2088
     13 C           4.5981    1.6121    0.0000 C.ar    1  UNL1        0.1772
     14 C           6.3580    1.6467    0.0000 C.ar    1  UNL1        0.2383
     15 C           7.2641    1.1329    0.0000 C.ar    1  UNL1        0.2107
     16 C           3.7320    0.1121    0.0000 C.ar    1  UNL1        0.2110
     17 C           3.7320    1.1121    0.0000 C.ar    1  UNL1        0.2080
     18 C           8.1282   -0.4121    0.0000 C.ar    1  UNL1        0.0213
     19 C           8.1244   -1.4121    0.0000 C.ar    1  UNL1       -0.0475
     20 C           8.9962    0.0846    0.0000 C.ar    1  UNL1       -0.0475
     21 C           8.9884   -1.9154    0.0000 C.ar    1  UNL1       -0.0193
     22 C           9.8602   -0.4188    0.0000 C.ar    1  UNL1       -0.0193
     23 C           9.8564   -1.4188    0.0000 C.ar    1  UNL1        0.1201
     24 C           3.7320   -1.8879    0.0000 C.3     1  UNL1        0.0791
     25 C           8.1244    2.6362    0.0000 C.3     1  UNL1        0.0791
     26 C           2.0000    0.1121    0.0000 C.3     1  UNL1        0.0791
     27 C           2.0000    1.1121    0.0000 C.3     1  UNL1        0.0791
     28 C          10.7166   -2.9221    0.0000 C.3     1  UNL1        0.0788
     29 H           7.5862   -1.7200    0.0000 H       1  UNL1        0.0626
     30 H           8.9985    0.7046    0.0000 H       1  UNL1        0.0626
     31 H           8.9860   -2.5354    0.0000 H       1  UNL1        0.0654
     32 H          10.3984   -0.1108    0.0000 H       1  UNL1        0.0654
     33 H           4.0611    2.9221    0.0000 H       1  UNL1        0.2923
     34 H           3.4220   -1.3510    0.0000 H       1  UNL1        0.0660
     35 H           3.1951   -2.1979    0.0000 H       1  UNL1        0.0660
     36 H           4.0420   -2.4249    0.0000 H       1  UNL1        0.0660
     37 H           8.7443    2.6386    0.0000 H       1  UNL1        0.0660
     38 H           8.1220    3.2562    0.0000 H       1  UNL1        0.0660
     39 H           7.5044    2.6338    0.0000 H       1  UNL1        0.0660
     40 H           2.3100    0.6490    0.0000 H       1  UNL1        0.0660
     41 H           1.4631    0.4221    0.0000 H       1  UNL1        0.0660
     42 H           1.6900   -0.4249    0.0000 H       1  UNL1        0.0660
     43 H           1.6900    1.6490    0.0000 H       1  UNL1        0.0660
     44 H           1.4631    0.8021    0.0000 H       1  UNL1        0.0660
     45 H           2.3100    0.5751    0.0000 H       1  UNL1        0.0660
     46 H          10.0966   -2.9197    0.0000 H       1  UNL1        0.0660
     47 H          10.7142   -3.5421    0.0000 H       1  UNL1        0.0660
     48 H          11.3366   -2.9245    0.0000 H       1  UNL1        0.0660
@<TRIPOS>BOND
     1     1    10   ar
     2     1    11   ar
     3     2    12    1
     4     2    24    1
     5     3    15    1
     6     3    25    1
     7     4    16    1
     8     4    26    1
     9     5    17    1
    10     5    27    1
    11     6    13    1
    12     6    33    1
    13     7    14    2
    14     8    23    1
    15     8    28    1
    16     9    10   ar
    17     9    13   ar
    18     9    14   ar
    19    10    12   ar
    20    11    15   ar
    21    11    18    1
    22    12    16   ar
    23    13    17   ar
    24    14    15   ar
    25    16    17   ar
    26    18    19   ar
    27    18    20   ar
    28    19    21   ar
    29    19    29    1
    30    20    22   ar
    31    20    30    1
    32    21    23   ar
    33    21    31    1
    34    22    23   ar
    35    22    32    1
    36    24    34    1
    37    24    35    1
    38    24    36    1
    39    25    37    1
    40    25    38    1
    41    25    39    1
    42    26    40    1
    43    26    41    1
    44    26    42    1
    45    27    43    1
    46    27    44    1
    47    27    45    1
    48    28    46    1
    49    28    47    1
    50    28    48    1
