@<TRIPOS>MOLECULE
IMPHY016341
 45 44 0 0 0
SMALL
GASTEIGER

@<TRIPOS>ATOM
      1 O           4.0981    0.7245    0.0000 O.3     1  UNL1       -0.3848
      2 C           4.5981   -0.1415    0.0000 C.3     1  UNL1        0.0816
      3 C           5.4641    0.3585    0.0000 C.3     1  UNL1       -0.0172
      4 C           6.3301   -0.1415    0.0000 C.3     1  UNL1       -0.0316
      5 C           5.0981   -1.0075    0.0000 C.3     1  UNL1       -0.0324
      6 C           7.1962    0.3585    0.0000 C.2     1  UNL1       -0.0849
      7 C           8.0622   -0.1415    0.0000 C.2     1  UNL1       -0.0762
      8 C           8.9282    0.3585    0.0000 C.3     1  UNL1       -0.0286
      9 C           3.7320   -0.6415    0.0000 C.2     1  UNL1       -0.0573
     10 C           9.7942   -0.1415    0.0000 C.3     1  UNL1       -0.0308
     11 C           8.0622   -1.1415    0.0000 C.3     1  UNL1       -0.0438
     12 C           2.8660   -0.1415    0.0000 C.2     1  UNL1       -0.0884
     13 C          10.6603    0.3585    0.0000 C.2     1  UNL1       -0.0850
     14 C          11.5263   -0.1415    0.0000 C.2     1  UNL1       -0.0796
     15 C           2.0000   -0.6415    0.0000 C.3     1  UNL1       -0.0467
     16 C          12.3923    0.3585    0.0000 C.3     1  UNL1       -0.0440
     17 C          11.5263   -1.1415    0.0000 C.3     1  UNL1       -0.0440
     18 H           5.8626    0.8335    0.0000 H       1  UNL1        0.0299
     19 H           5.0656    0.8335    0.0000 H       1  UNL1        0.0299
     20 H           5.9316   -0.6164    0.0000 H       1  UNL1        0.0308
     21 H           6.7287   -0.6164    0.0000 H       1  UNL1        0.0308
     22 H           7.1962    0.9785    0.0000 H       1  UNL1        0.0572
     23 H           4.5611   -1.3175    0.0000 H       1  UNL1        0.0260
     24 H           5.4081   -1.5444    0.0000 H       1  UNL1        0.0260
     25 H           5.6350   -0.6975    0.0000 H       1  UNL1        0.0260
     26 H           9.3267    0.8335    0.0000 H       1  UNL1        0.0313
     27 H           8.5297    0.8335    0.0000 H       1  UNL1        0.0313
     28 H           3.7320   -1.2615    0.0000 H       1  UNL1        0.0597
     29 H           9.3957   -0.6164    0.0000 H       1  UNL1        0.0310
     30 H          10.1928   -0.6164    0.0000 H       1  UNL1        0.0310
     31 H           4.4081    1.2615    0.0000 H       1  UNL1        0.2106
     32 H           7.4422   -1.1415    0.0000 H       1  UNL1        0.0274
     33 H           8.0622   -1.7615    0.0000 H       1  UNL1        0.0274
     34 H           8.6822   -1.1415    0.0000 H       1  UNL1        0.0274
     35 H           2.8660    0.4785    0.0000 H       1  UNL1        0.0567
     36 H          10.6603    0.9785    0.0000 H       1  UNL1        0.0572
     37 H           1.6900   -0.1045    0.0000 H       1  UNL1        0.0272
     38 H           1.4631   -0.9515    0.0000 H       1  UNL1        0.0272
     39 H           2.3100   -1.1784    0.0000 H       1  UNL1        0.0272
     40 H          12.7023   -0.1784    0.0000 H       1  UNL1        0.0274
     41 H          12.9292    0.6685    0.0000 H       1  UNL1        0.0274
     42 H          12.0823    0.8955    0.0000 H       1  UNL1        0.0274
     43 H          10.9063   -1.1415    0.0000 H       1  UNL1        0.0274
     44 H          11.5263   -1.7615    0.0000 H       1  UNL1        0.0274
     45 H          12.1463   -1.1415    0.0000 H       1  UNL1        0.0274
@<TRIPOS>BOND
     1     1     2    1
     2     1    31    1
     3     2     3    1
     4     2     5    1
     5     2     9    1
     6     3     4    1
     7     3    18    1
     8     3    19    1
     9     4     6    1
    10     4    20    1
    11     4    21    1
    12     5    23    1
    13     5    24    1
    14     5    25    1
    15     6     7    2
    16     6    22    1
    17     7     8    1
    18     7    11    1
    19     8    10    1
    20     8    26    1
    21     8    27    1
    22     9    12    2
    23     9    28    1
    24    10    13    1
    25    10    29    1
    26    10    30    1
    27    11    32    1
    28    11    33    1
    29    11    34    1
    30    12    15    1
    31    12    35    1
    32    13    14    2
    33    13    36    1
    34    14    16    1
    35    14    17    1
    36    15    37    1
    37    15    38    1
    38    15    39    1
    39    16    40    1
    40    16    41    1
    41    16    42    1
    42    17    43    1
    43    17    44    1
    44    17    45    1
