@<TRIPOS>MOLECULE
IMPHY015110
 66 71 0 0 0
SMALL
GASTEIGER

@<TRIPOS>ATOM
      1 O           5.9295   -0.3270    0.0000 O.2     1  UNL1       -0.4699
      2 O           6.8671   -1.8732    0.0000 O.3     1  UNL1       -0.3093
      3 O           5.1350   -1.8732    0.0000 O.3     1  UNL1       -0.3404
      4 O           6.0458    2.8370    0.0000 O.2     1  UNL1       -0.2702
      5 O           6.8671   -3.8732    0.0000 O.3     1  UNL1       -0.3841
      6 O           5.1350   -4.8732    0.0000 O.3     1  UNL1       -0.3864
      7 O           3.4030   -3.8732    0.0000 O.3     1  UNL1       -0.3865
      8 O           2.5369   -2.3732    0.0000 O.3     1  UNL1       -0.3924
      9 N           7.8160    2.8271    0.0000 N.am    1  UNL1       -0.2889
     10 N          10.4931    2.5120    0.0000 N.ar    1  UNL1       -0.3562
     11 C           7.7920    0.7579    0.0000 C.3     1  UNL1        0.0059
     12 C           8.6801    2.3237    0.0000 C.3     1  UNL1        0.0672
     13 C           8.6921    1.2822    0.0000 C.3     1  UNL1       -0.0209
     14 C           7.8046   -0.3270    0.0000 C.3     1  UNL1        0.0466
     15 C           6.8920    1.2822    0.0000 C.2     1  UNL1        0.0526
     16 C           9.5480    2.8204    0.0000 C.ar    1  UNL1        0.0410
     17 C           7.8198    3.8270    0.0000 C.3     1  UNL1        0.0197
     18 C           6.8671   -0.8732    0.0000 C.3     1  UNL1        0.2102
     19 C           9.5519    3.8204    0.0000 C.ar    1  UNL1       -0.0158
     20 C           6.9040    2.3237    0.0000 C.2     1  UNL1        0.2464
     21 C           8.6878    4.3237    0.0000 C.3     1  UNL1       -0.0095
     22 C           5.9421    0.7579    0.0000 C.2     1  UNL1        0.0963
     23 C          10.4993    4.1215    0.0000 C.ar    1  UNL1        0.0032
     24 C           8.6744   -0.8204    0.0000 C.2     1  UNL1       -0.0816
     25 C           6.0010   -2.3732    0.0000 C.3     1  UNL1        0.1918
     26 C          11.0798    3.3145    0.0000 C.ar    1  UNL1        0.0470
     27 C           6.0010   -3.3732    0.0000 C.3     1  UNL1        0.1342
     28 C           5.1350   -3.8732    0.0000 C.3     1  UNL1        0.1141
     29 C           4.2690   -3.3732    0.0000 C.3     1  UNL1        0.1119
     30 C           4.2690   -2.3732    0.0000 C.3     1  UNL1        0.1130
     31 C          10.9103    5.0719    0.0000 C.ar    1  UNL1       -0.0523
     32 C          12.1115    3.4020    0.0000 C.ar    1  UNL1       -0.0378
     33 C           8.6822   -1.8203    0.0000 C.2     1  UNL1       -0.1022
     34 C           3.4030   -1.8732    0.0000 C.3     1  UNL1        0.0730
     35 C          11.9397    5.1832    0.0000 C.ar    1  UNL1       -0.0611
     36 C          12.5444    4.3426    0.0000 C.ar    1  UNL1       -0.0598
     37 H           8.5314    0.3386    0.0000 H       1  UNL1        0.0360
     38 H           9.4178    1.9016    0.0000 H       1  UNL1        0.0565
     39 H           8.9079    0.7009    0.0000 H       1  UNL1        0.0293
     40 H           9.3017    1.3953    0.0000 H       1  UNL1        0.0293
     41 H           8.3385   -0.0119    0.0000 H       1  UNL1        0.0410
     42 H           7.6100    4.4105    0.0000 H       1  UNL1        0.0468
     43 H           7.2088    3.7217    0.0000 H       1  UNL1        0.0468
     44 H           7.4046   -1.1821    0.0000 H       1  UNL1        0.1062
     45 H           9.0881    4.7971    0.0000 H       1  UNL1        0.0329
     46 H           8.2911    4.8002    0.0000 H       1  UNL1        0.0329
     47 H           5.4100    1.0761    0.0000 H       1  UNL1        0.1029
     48 H          10.6834    1.9219    0.0000 H       1  UNL1        0.1657
     49 H           9.2090   -0.5062    0.0000 H       1  UNL1        0.0571
     50 H           6.0010   -1.7532    0.0000 H       1  UNL1        0.0939
     51 H           6.0010   -3.9932    0.0000 H       1  UNL1        0.0671
     52 H           4.5981   -4.1832    0.0000 H       1  UNL1        0.0648
     53 H           4.2690   -3.9932    0.0000 H       1  UNL1        0.0647
     54 H           4.2690   -1.7532    0.0000 H       1  UNL1        0.0647
     55 H          10.5424    5.5709    0.0000 H       1  UNL1        0.0624
     56 H          12.4677    2.8945    0.0000 H       1  UNL1        0.0638
     57 H           8.1476   -2.1345    0.0000 H       1  UNL1        0.0532
     58 H           9.2215   -2.1262    0.0000 H       1  UNL1        0.0532
     59 H           3.8015   -1.3982    0.0000 H       1  UNL1        0.0584
     60 H           3.0044   -1.3982    0.0000 H       1  UNL1        0.0584
     61 H          12.1924    5.7493    0.0000 H       1  UNL1        0.0618
     62 H           6.8671   -4.4932    0.0000 H       1  UNL1        0.2101
     63 H          13.1615    4.4021    0.0000 H       1  UNL1        0.0618
     64 H           4.5981   -5.1832    0.0000 H       1  UNL1        0.2100
     65 H           3.4030   -4.4932    0.0000 H       1  UNL1        0.2100
     66 H           2.0000   -2.0632    0.0000 H       1  UNL1        0.2095
@<TRIPOS>BOND
     1     1    18    1
     2     1    22    1
     3    18     2    1
     4    25     2    1
     5     3    25    1
     6     3    30    1
     7     4    20    2
     8    27     5    1
     9     5    62    1
    10    28     6    1
    11     6    64    1
    12    29     7    1
    13     7    65    1
    14     8    34    1
    15     8    66    1
    16     9    12    1
    17     9    17    1
    18     9    20   am
    19    10    16   ar
    20    10    26   ar
    21    10    48    1
    22    11    13    1
    23    11    14    1
    24    11    15    1
    25    11    37    1
    26    12    13    1
    27    12    16    1
    28    12    38    1
    29    13    39    1
    30    13    40    1
    31    14    18    1
    32    14    24    1
    33    14    41    1
    34    15    20    1
    35    15    22    2
    36    16    19   ar
    37    17    21    1
    38    17    42    1
    39    17    43    1
    40    18    44    1
    41    19    21    1
    42    19    23   ar
    43    21    45    1
    44    21    46    1
    45    22    47    1
    46    23    26   ar
    47    23    31   ar
    48    24    33    2
    49    24    49    1
    50    25    27    1
    51    25    50    1
    52    26    32   ar
    53    27    28    1
    54    27    51    1
    55    28    29    1
    56    28    52    1
    57    29    30    1
    58    29    53    1
    59    30    34    1
    60    30    54    1
    61    31    35   ar
    62    31    55    1
    63    32    36   ar
    64    32    56    1
    65    33    57    1
    66    33    58    1
    67    34    59    1
    68    34    60    1
    69    35    36   ar
    70    35    61    1
    71    36    63    1
