@<TRIPOS>MOLECULE
IMPHY001223
 17 18 0 0 0
SMALL
GASTEIGER

@<TRIPOS>ATOM
      1 O           4.6783   -0.8047    0.0000 O.3     1  UNL1       -0.4914
      2 C           4.6783    0.8047    0.0000 C.3     1  UNL1        0.0101
      3 C           3.7320    0.5000    0.0000 C.ar    1  UNL1       -0.0025
      4 C           5.2619    0.0000    0.0000 C.3     1  UNL1        0.0937
      5 C           3.7320   -0.5000    0.0000 C.ar    1  UNL1        0.1238
      6 C           2.8660    1.0000    0.0000 C.ar    1  UNL1       -0.0550
      7 C           2.8660   -1.0000    0.0000 C.ar    1  UNL1       -0.0197
      8 C           2.0000    0.5000    0.0000 C.ar    1  UNL1       -0.0613
      9 C           2.0000   -0.5000    0.0000 C.ar    1  UNL1       -0.0583
     10 H           5.2156    1.1140    0.0000 H       1  UNL1        0.0347
     11 H           4.4272    1.3716    0.0000 H       1  UNL1        0.0347
     12 H           5.7227   -0.4147    0.0000 H       1  UNL1        0.0700
     13 H           5.7227    0.4147    0.0000 H       1  UNL1        0.0700
     14 H           2.8660    1.6200    0.0000 H       1  UNL1        0.0621
     15 H           2.8660   -1.6200    0.0000 H       1  UNL1        0.0654
     16 H           1.4631    0.8100    0.0000 H       1  UNL1        0.0618
     17 H           1.4631   -0.8100    0.0000 H       1  UNL1        0.0619
@<TRIPOS>BOND
     1     1     4    1
     2     1     5    1
     3     2     3    1
     4     2     4    1
     5     2    10    1
     6     2    11    1
     7     3     5   ar
     8     3     6   ar
     9     4    12    1
    10     4    13    1
    11     5     7   ar
    12     6     8   ar
    13     6    14    1
    14     7     9   ar
    15     7    15    1
    16     8     9   ar
    17     8    16    1
    18     9    17    1
