@<TRIPOS>MOLECULE
IMPHY003341
 73 77 0 0 0
SMALL
GASTEIGER

@<TRIPOS>ATOM
      1 O           7.5280    1.3249    0.0000 O.3     1  UNL1       -0.4641
      2 O           8.9117    0.2109    0.0000 O.2     1  UNL1       -0.2505
      3 O           3.7784   -3.4933    0.0000 O.3     1  UNL1       -0.4526
      4 O           5.2302   -4.3315    0.0000 O.3     1  UNL1       -0.4526
      5 O          10.6603   -1.2500    0.0000 O.3     1  UNL1       -0.4913
      6 O           8.9282   -4.2500    0.0000 O.3     1  UNL1       -0.4913
      7 O          10.6603   -3.2500    0.0000 O.3     1  UNL1       -0.5009
      8 N           3.7320    1.7500    0.0000 N.3     1  UNL1       -0.3041
      9 N           2.8660    4.2500    0.0000 N.3     1  UNL1       -0.3071
     10 C           6.3301    0.2500    0.0000 C.3     1  UNL1        0.0139
     11 C           7.1962   -0.2500    0.0000 C.3     1  UNL1        0.0736
     12 C           5.4641   -0.2500    0.0000 C.3     1  UNL1       -0.0076
     13 C           7.1962   -1.2500    0.0000 C.3     1  UNL1        0.0231
     14 C           5.4641   -1.2500    0.0000 C.ar    1  UNL1       -0.0364
     15 C           6.5393    1.2218    0.0000 C.3     1  UNL1        0.0966
     16 C           6.3301   -1.7500    0.0000 C.ar    1  UNL1       -0.0320
     17 C           4.5981    0.2500    0.0000 C.3     1  UNL1       -0.0330
     18 C           7.9332    0.4171    0.0000 C.2     1  UNL1        0.3115
     19 C           8.0622   -1.7500    0.0000 C.ar    1  UNL1       -0.0320
     20 C           4.5981    1.2500    0.0000 C.3     1  UNL1       -0.0008
     21 C           4.5541   -1.7568    0.0000 C.ar    1  UNL1       -0.0124
     22 C           6.3462   -2.7915    0.0000 C.ar    1  UNL1       -0.0121
     23 C           4.5461   -2.7984    0.0000 C.ar    1  UNL1        0.1665
     24 C           5.4482   -3.3193    0.0000 C.ar    1  UNL1        0.1665
     25 C           8.0622   -2.7500    0.0000 C.ar    1  UNL1       -0.0123
     26 C           8.9282   -1.2500    0.0000 C.ar    1  UNL1       -0.0123
     27 C           3.7320    2.7500    0.0000 C.3     1  UNL1        0.0114
     28 C           9.7942   -1.7500    0.0000 C.ar    1  UNL1        0.1653
     29 C           8.9282   -3.2500    0.0000 C.ar    1  UNL1        0.1653
     30 C           4.2004   -4.4389    0.0000 C.3     1  UNL1        0.2332
     31 C           2.8660    1.2500    0.0000 C.3     1  UNL1       -0.0127
     32 C           9.7942   -2.7500    0.0000 C.ar    1  UNL1        0.2010
     33 C           2.8660    3.2500    0.0000 C.3     1  UNL1        0.0111
     34 C          10.6603   -0.2500    0.0000 C.3     1  UNL1        0.0790
     35 C           9.7942   -4.7500    0.0000 C.3     1  UNL1        0.0790
     36 C           2.0000    4.7500    0.0000 C.3     1  UNL1       -0.0130
     37 C           3.7320    4.7500    0.0000 C.3     1  UNL1       -0.0130
     38 H           5.6431    0.7505    0.0000 H       1  UNL1        0.0348
     39 H           7.9731   -0.5947    0.0000 H       1  UNL1        0.0427
     40 H           5.4641    0.3700    0.0000 H       1  UNL1        0.0353
     41 H           7.7331   -0.9400    0.0000 H       1  UNL1        0.0405
     42 H           6.5402    1.8418    0.0000 H       1  UNL1        0.0700
     43 H           5.9229    1.2879    0.0000 H       1  UNL1        0.0700
     44 H           3.9875    0.3577    0.0000 H       1  UNL1        0.0283
     45 H           4.3860   -0.3326    0.0000 H       1  UNL1        0.0283
     46 H           5.2087    1.1423    0.0000 H       1  UNL1        0.0427
     47 H           4.8101    1.8326    0.0000 H       1  UNL1        0.0427
     48 H           4.0208   -1.4407    0.0000 H       1  UNL1        0.0658
     49 H           6.8867   -3.0953    0.0000 H       1  UNL1        0.0658
     50 H           7.5252   -3.0600    0.0000 H       1  UNL1        0.0658
     51 H           8.9282   -0.6300    0.0000 H       1  UNL1        0.0658
     52 H           4.3426    2.6423    0.0000 H       1  UNL1        0.0439
     53 H           3.9441    3.3326    0.0000 H       1  UNL1        0.0439
     54 H           3.6108   -4.6306    0.0000 H       1  UNL1        0.1166
     55 H           4.3291   -5.0454    0.0000 H       1  UNL1        0.1166
     56 H           2.5560    1.7869    0.0000 H       1  UNL1        0.0391
     57 H           2.3291    0.9400    0.0000 H       1  UNL1        0.0391
     58 H           3.1760    0.7131    0.0000 H       1  UNL1        0.0391
     59 H           2.2554    3.3577    0.0000 H       1  UNL1        0.0439
     60 H           2.6540    2.6674    0.0000 H       1  UNL1        0.0439
     61 H          11.1972   -2.9400    0.0000 H       1  UNL1        0.2924
     62 H          11.2803   -0.2500    0.0000 H       1  UNL1        0.0660
     63 H          10.6603    0.3700    0.0000 H       1  UNL1        0.0660
     64 H          10.0403   -0.2500    0.0000 H       1  UNL1        0.0660
     65 H           9.4842   -5.2869    0.0000 H       1  UNL1        0.0660
     66 H          10.3312   -5.0600    0.0000 H       1  UNL1        0.0660
     67 H          10.1042   -4.2131    0.0000 H       1  UNL1        0.0660
     68 H           4.0420    4.2131    0.0000 H       1  UNL1        0.0391
     69 H           4.2690    5.0600    0.0000 H       1  UNL1        0.0391
     70 H           3.4220    5.2869    0.0000 H       1  UNL1        0.0391
     71 H           2.3100    5.2869    0.0000 H       1  UNL1        0.0391
     72 H           1.4631    5.0600    0.0000 H       1  UNL1        0.0391
     73 H           1.6900    4.2131    0.0000 H       1  UNL1        0.0391
@<TRIPOS>BOND
     1     1    15    1
     2     1    18    1
     3     2    18    2
     4     3    23    1
     5     3    30    1
     6     4    24    1
     7     4    30    1
     8     5    28    1
     9     5    34    1
    10     6    29    1
    11     6    35    1
    12     7    32    1
    13     7    61    1
    14     8    20    1
    15     8    27    1
    16     8    31    1
    17     9    33    1
    18     9    36    1
    19     9    37    1
    20    10    11    1
    21    10    12    1
    22    10    15    1
    23    10    38    1
    24    11    13    1
    25    11    18    1
    26    11    39    1
    27    12    14    1
    28    12    17    1
    29    12    40    1
    30    13    16    1
    31    13    19    1
    32    13    41    1
    33    14    16   ar
    34    14    21   ar
    35    15    42    1
    36    15    43    1
    37    16    22   ar
    38    17    20    1
    39    17    44    1
    40    17    45    1
    41    19    25   ar
    42    19    26   ar
    43    20    46    1
    44    20    47    1
    45    21    23   ar
    46    21    48    1
    47    22    24   ar
    48    22    49    1
    49    23    24   ar
    50    25    29   ar
    51    25    50    1
    52    26    28   ar
    53    26    51    1
    54    27    33    1
    55    27    52    1
    56    27    53    1
    57    28    32   ar
    58    29    32   ar
    59    30    54    1
    60    30    55    1
    61    31    56    1
    62    31    57    1
    63    31    58    1
    64    33    59    1
    65    33    60    1
    66    34    62    1
    67    34    63    1
    68    34    64    1
    69    35    65    1
    70    35    66    1
    71    35    67    1
    72    36    71    1
    73    36    72    1
    74    36    73    1
    75    37    68    1
    76    37    69    1
    77    37    70    1
