@<TRIPOS>MOLECULE
IMPHY017311
 37 37 0 0 0
SMALL
GASTEIGER

@<TRIPOS>ATOM
      1 O           5.5981   -2.8100    0.0000 O.2     1  UNL1       -0.2924
      2 O           5.5981    2.1900    0.0000 O.3     1  UNL1       -0.3920
      3 C           3.0000   -1.3100    0.0000 C.3     1  UNL1       -0.0128
      4 C           3.8660   -0.8100    0.0000 C.2     1  UNL1       -0.0576
      5 C           3.0000   -2.3100    0.0000 C.3     1  UNL1       -0.0371
      6 C           3.8660   -2.8100    0.0000 C.3     1  UNL1        0.0109
      7 C           3.8660    0.1900    0.0000 C.3     1  UNL1       -0.0283
      8 C           4.7320   -1.3100    0.0000 C.2     1  UNL1       -0.0083
      9 C           2.0000   -1.3100    0.0000 C.3     1  UNL1       -0.0561
     10 C           2.5000   -0.4440    0.0000 C.3     1  UNL1       -0.0561
     11 C           4.7320   -2.3100    0.0000 C.2     1  UNL1        0.1590
     12 C           4.7320    0.6900    0.0000 C.3     1  UNL1       -0.0234
     13 C           4.7320    1.6900    0.0000 C.3     1  UNL1        0.0527
     14 C           5.5981   -0.8100    0.0000 C.3     1  UNL1       -0.0364
     15 C           3.8660    2.1900    0.0000 C.3     1  UNL1       -0.0389
     16 H           2.3894   -2.2023    0.0000 H       1  UNL1        0.0278
     17 H           2.7880   -2.8926    0.0000 H       1  UNL1        0.0278
     18 H           3.6540    0.7726    0.0000 H       1  UNL1        0.0311
     19 H           3.2554    0.0823    0.0000 H       1  UNL1        0.0311
     20 H           3.4675   -3.2850    0.0000 H       1  UNL1        0.0345
     21 H           4.2646   -3.2850    0.0000 H       1  UNL1        0.0345
     22 H           2.0000   -0.6900    0.0000 H       1  UNL1        0.0238
     23 H           1.3800   -1.3100    0.0000 H       1  UNL1        0.0238
     24 H           2.0000   -1.9300    0.0000 H       1  UNL1        0.0238
     25 H           3.0369   -0.1340    0.0000 H       1  UNL1        0.0238
     26 H           2.1900    0.0930    0.0000 H       1  UNL1        0.0238
     27 H           1.9631   -0.7540    0.0000 H       1  UNL1        0.0238
     28 H           4.9441    0.1074    0.0000 H       1  UNL1        0.0293
     29 H           5.3426    0.7977    0.0000 H       1  UNL1        0.0293
     30 H           4.7320    2.3100    0.0000 H       1  UNL1        0.0590
     31 H           5.9081   -1.3469    0.0000 H       1  UNL1        0.0279
     32 H           6.1350   -0.5000    0.0000 H       1  UNL1        0.0279
     33 H           5.2881   -0.2731    0.0000 H       1  UNL1        0.0279
     34 H           4.1760    2.7269    0.0000 H       1  UNL1        0.0254
     35 H           3.3291    2.5000    0.0000 H       1  UNL1        0.0254
     36 H           3.5560    1.6531    0.0000 H       1  UNL1        0.0254
     37 H           5.5981    2.8100    0.0000 H       1  UNL1        0.2098
@<TRIPOS>BOND
     1     1    11    2
     2     2    13    1
     3     2    37    1
     4     3     4    1
     5     3     5    1
     6     3     9    1
     7     3    10    1
     8     4     7    1
     9     4     8    2
    10     5     6    1
    11     5    16    1
    12     5    17    1
    13     6    11    1
    14     6    20    1
    15     6    21    1
    16     7    12    1
    17     7    18    1
    18     7    19    1
    19     8    11    1
    20     8    14    1
    21     9    22    1
    22     9    23    1
    23     9    24    1
    24    10    25    1
    25    10    26    1
    26    10    27    1
    27    12    13    1
    28    12    28    1
    29    12    29    1
    30    13    15    1
    31    13    30    1
    32    14    31    1
    33    14    32    1
    34    14    33    1
    35    15    34    1
    36    15    35    1
    37    15    36    1
