@<TRIPOS>MOLECULE
IMPHY006297
 24 24 0 0 0
SMALL
GASTEIGER

@<TRIPOS>ATOM
      1 O           2.8660    1.0950    0.0000 O.3     1  UNL1       -0.4915
      2 O           4.5981    2.0950    0.0000 O.3     1  UNL1       -0.5033
      3 C           5.4641   -0.4050    0.0000 C.ar    1  UNL1       -0.0400
      4 C           6.3301   -0.9050    0.0000 C.3     1  UNL1       -0.0096
      5 C           5.4641    0.5950    0.0000 C.ar    1  UNL1       -0.0130
      6 C           4.5981   -0.9050    0.0000 C.ar    1  UNL1       -0.0546
      7 C           4.5981    1.0950    0.0000 C.ar    1  UNL1        0.1587
      8 C           3.7320    0.5950    0.0000 C.ar    1  UNL1        0.1613
      9 C           3.7320   -0.4050    0.0000 C.ar    1  UNL1       -0.0160
     10 C           6.3301   -1.9050    0.0000 C.2     1  UNL1       -0.0868
     11 C           2.0000    0.5950    0.0000 C.3     1  UNL1        0.0790
     12 C           7.1962   -2.4050    0.0000 C.2     1  UNL1       -0.1023
     13 H           6.9407   -1.0127    0.0000 H       1  UNL1        0.0355
     14 H           6.5422   -0.3224    0.0000 H       1  UNL1        0.0355
     15 H           6.0010    0.9050    0.0000 H       1  UNL1        0.0658
     16 H           4.5981   -1.5250    0.0000 H       1  UNL1        0.0622
     17 H           3.1951   -0.7150    0.0000 H       1  UNL1        0.0655
     18 H           5.7932   -2.2150    0.0000 H       1  UNL1        0.0570
     19 H           5.1350    2.4050    0.0000 H       1  UNL1        0.2923
     20 H           1.6900    1.1319    0.0000 H       1  UNL1        0.0660
     21 H           1.4631    0.2850    0.0000 H       1  UNL1        0.0660
     22 H           2.3100    0.0581    0.0000 H       1  UNL1        0.0660
     23 H           7.1962   -3.0250    0.0000 H       1  UNL1        0.0532
     24 H           7.7331   -2.0950    0.0000 H       1  UNL1        0.0532
@<TRIPOS>BOND
     1     1     8    1
     2     1    11    1
     3     2     7    1
     4     2    19    1
     5     3     4    1
     6     3     5   ar
     7     3     6   ar
     8     4    10    1
     9     4    13    1
    10     4    14    1
    11     5     7   ar
    12     5    15    1
    13     6     9   ar
    14     6    16    1
    15     7     8   ar
    16     8     9   ar
    17     9    17    1
    18    10    12    2
    19    10    18    1
    20    11    20    1
    21    11    21    1
    22    11    22    1
    23    12    23    1
    24    12    24    1
