@<TRIPOS>MOLECULE
IMPHY016762
 32 31 0 0 0
SMALL
GASTEIGER

@<TRIPOS>ATOM
      1 O           8.9282   -0.2500    0.0000 O.3     1  UNL1       -0.4604
      2 O           9.7942    1.2500    0.0000 O.2     1  UNL1       -0.2512
      3 C           5.4641   -0.2500    0.0000 C.3     1  UNL1       -0.0304
      4 C           4.5981    0.2500    0.0000 C.3     1  UNL1       -0.0248
      5 C           6.3301    0.2500    0.0000 C.2     1  UNL1       -0.0815
      6 C           7.1962   -0.2500    0.0000 C.2     1  UNL1       -0.0396
      7 C           8.0622    0.2500    0.0000 C.3     1  UNL1        0.1133
      8 C           3.7320   -0.2500    0.0000 C.2     1  UNL1       -0.0547
      9 C           7.1962   -1.2500    0.0000 C.3     1  UNL1       -0.0406
     10 C           2.8660    0.2500    0.0000 C.2     1  UNL1       -0.0662
     11 C           3.7320   -1.2500    0.0000 C.2     1  UNL1       -0.0955
     12 C           9.7942    0.2500    0.0000 C.2     1  UNL1        0.3042
     13 C           2.0000   -0.2500    0.0000 C.2     1  UNL1       -0.0985
     14 C          10.6603   -0.2500    0.0000 C.3     1  UNL1        0.0332
     15 H           5.0656   -0.7249    0.0000 H       1  UNL1        0.0311
     16 H           5.8626   -0.7249    0.0000 H       1  UNL1        0.0311
     17 H           4.9966    0.7249    0.0000 H       1  UNL1        0.0316
     18 H           4.1996    0.7249    0.0000 H       1  UNL1        0.0316
     19 H           6.3301    0.8700    0.0000 H       1  UNL1        0.0573
     20 H           8.4607    0.7249    0.0000 H       1  UNL1        0.0745
     21 H           7.6636    0.7249    0.0000 H       1  UNL1        0.0745
     22 H           6.5762   -1.2500    0.0000 H       1  UNL1        0.0275
     23 H           7.1962   -1.8700    0.0000 H       1  UNL1        0.0275
     24 H           7.8162   -1.2500    0.0000 H       1  UNL1        0.0275
     25 H           2.8660    0.8700    0.0000 H       1  UNL1        0.0614
     26 H           3.1951   -1.5600    0.0000 H       1  UNL1        0.0537
     27 H           4.2690   -1.5600    0.0000 H       1  UNL1        0.0537
     28 H           1.4631    0.0600    0.0000 H       1  UNL1        0.0535
     29 H           2.0000   -0.8700    0.0000 H       1  UNL1        0.0535
     30 H          10.3503   -0.7869    0.0000 H       1  UNL1        0.0342
     31 H          11.1972   -0.5600    0.0000 H       1  UNL1        0.0342
     32 H          10.9703    0.2869    0.0000 H       1  UNL1        0.0342
@<TRIPOS>BOND
     1     1     7    1
     2     1    12    1
     3     2    12    2
     4     3     4    1
     5     3     5    1
     6     3    15    1
     7     3    16    1
     8     4     8    1
     9     4    17    1
    10     4    18    1
    11     5     6    2
    12     5    19    1
    13     6     7    1
    14     6     9    1
    15     7    20    1
    16     7    21    1
    17     8    10    1
    18     8    11    2
    19     9    22    1
    20     9    23    1
    21     9    24    1
    22    10    13    2
    23    10    25    1
    24    11    26    1
    25    11    27    1
    26    12    14    1
    27    13    28    1
    28    13    29    1
    29    14    30    1
    30    14    31    1
    31    14    32    1
