@<TRIPOS>MOLECULE
IMPHY007262
 27 29 0 0 0
SMALL
GASTEIGER

@<TRIPOS>ATOM
      1 O           4.6660    1.9879    0.0000 O.2     1  UNL1       -0.2866
      2 O           4.6660   -2.0121    0.0000 O.2     1  UNL1       -0.2866
      3 O           9.0641    0.5154    0.0000 O.3     1  UNL1       -0.4771
      4 O           8.1923    2.0121    0.0000 O.2     1  UNL1       -0.2451
      5 C           5.5321    0.4879    0.0000 C.ar    1  UNL1        0.0339
      6 C           5.5321   -0.5121    0.0000 C.ar    1  UNL1        0.0331
      7 C           3.8000    0.4879    0.0000 C.ar    1  UNL1        0.0331
      8 C           3.8000   -0.5121    0.0000 C.ar    1  UNL1        0.0331
      9 C           4.6660    0.9879    0.0000 C.2     1  UNL1        0.1945
     10 C           4.6660   -1.0121    0.0000 C.2     1  UNL1        0.1945
     11 C           6.4260    1.0226    0.0000 C.ar    1  UNL1       -0.0363
     12 C           6.4260   -1.0467    0.0000 C.ar    1  UNL1       -0.0495
     13 C           7.3321    0.5087    0.0000 C.ar    1  UNL1        0.0595
     14 C           2.9061    1.0226    0.0000 C.ar    1  UNL1       -0.0502
     15 C           2.9061   -1.0467    0.0000 C.ar    1  UNL1       -0.0502
     16 C           7.3321   -0.5329    0.0000 C.ar    1  UNL1       -0.0471
     17 C           2.0000    0.5087    0.0000 C.ar    1  UNL1       -0.0610
     18 C           2.0000   -0.5329    0.0000 C.ar    1  UNL1       -0.0610
     19 C           8.1962    1.0121    0.0000 C.2     1  UNL1        0.3368
     20 H           6.4188    1.6426    0.0000 H       1  UNL1        0.0633
     21 H           6.4188   -1.6667    0.0000 H       1  UNL1        0.0625
     22 H           2.9132    1.6426    0.0000 H       1  UNL1        0.0625
     23 H           2.9132   -1.6667    0.0000 H       1  UNL1        0.0625
     24 H           7.8678   -0.8450    0.0000 H       1  UNL1        0.0626
     25 H           1.4643    0.8208    0.0000 H       1  UNL1        0.0618
     26 H           1.4643   -0.8450    0.0000 H       1  UNL1        0.0618
     27 H           9.5998    0.8275    0.0000 H       1  UNL1        0.2954
@<TRIPOS>BOND
     1     1     9    2
     2     2    10    2
     3     3    19    1
     4     3    27    1
     5     4    19    2
     6     5     6   ar
     7     5     9    1
     8     5    11   ar
     9     6    10    1
    10     6    12   ar
    11     7     8   ar
    12     7     9    1
    13     7    14   ar
    14     8    10    1
    15     8    15   ar
    16    11    13   ar
    17    11    20    1
    18    12    16   ar
    19    12    21    1
    20    13    16   ar
    21    13    19    1
    22    14    17   ar
    23    14    22    1
    24    15    18   ar
    25    15    23    1
    26    16    24    1
    27    17    18   ar
    28    17    25    1
    29    18    26    1
