@<TRIPOS>MOLECULE
IMPHY000357
 52 56 0 0 0
SMALL
GASTEIGER

@<TRIPOS>ATOM
      1 O           4.4850    3.2396    0.0000 O.2     1  UNL1       -0.4957
      2 O           2.2700   -2.6845    0.0000 O.2     1  UNL1       -0.2744
      3 O           6.8890    2.5258    0.0000 O.3     1  UNL1       -0.4646
      4 O           6.8690    0.7938    0.0000 O.2     1  UNL1       -0.2452
      5 O           6.9384   -0.0417    0.0000 O.3     1  UNL1       -0.5068
      6 N           2.7370    0.1703    0.0000 N.3     1  UNL1       -0.2976
      7 N           4.0494   -2.7808    0.0000 N.am    1  UNL1       -0.2844
      8 C           3.6030   -0.3297    0.0000 C.3     1  UNL1        0.0290
      9 C           3.3938   -1.3015    0.0000 C.3     1  UNL1        0.0905
     10 C           4.4691    0.1703    0.0000 C.3     1  UNL1       -0.0285
     11 C           3.6030    1.6703    0.0000 C.3     1  UNL1        0.0157
     12 C           4.4691    1.1703    0.0000 C.3     1  UNL1        0.0026
     13 C           2.4051   -1.4046    0.0000 C.3     1  UNL1       -0.0206
     14 C           2.7370    1.1703    0.0000 C.3     1  UNL1        0.0060
     15 C           2.0000   -0.4968    0.0000 C.3     1  UNL1        0.0005
     16 C           4.3885   -1.1987    0.0000 C.ar    1  UNL1       -0.0063
     17 C           3.5870    2.7118    0.0000 C.3     1  UNL1        0.1011
     18 C           3.1842   -2.2793    0.0000 C.2     1  UNL1        0.2293
     19 C           5.3791    1.6771    0.0000 C.2     1  UNL1        0.0742
     20 C           4.7937   -2.1130    0.0000 C.ar    1  UNL1        0.0379
     21 C           4.9892   -0.3477    0.0000 C.ar    1  UNL1       -0.0142
     22 C           2.7152    3.2018    0.0000 C.3     1  UNL1       -0.0275
     23 C           5.3871    2.7187    0.0000 C.2     1  UNL1        0.0951
     24 C           5.8276   -2.2396    0.0000 C.ar    1  UNL1       -0.0367
     25 C           6.3790    1.6656    0.0000 C.2     1  UNL1        0.3381
     26 C           6.0258   -0.4504    0.0000 C.ar    1  UNL1        0.1173
     27 C           6.4478   -1.4027    0.0000 C.ar    1  UNL1       -0.0184
     28 C           6.3990    3.3975    0.0000 C.3     1  UNL1        0.0820
     29 H           4.2901   -0.8302    0.0000 H       1  UNL1        0.0476
     30 H           4.6811   -0.4123    0.0000 H       1  UNL1        0.0287
     31 H           5.0796    0.2780    0.0000 H       1  UNL1        0.0287
     32 H           2.8637    2.0896    0.0000 H       1  UNL1        0.0355
     33 H           5.2019    0.7396    0.0000 H       1  UNL1        0.0357
     34 H           1.8155   -1.5963    0.0000 H       1  UNL1        0.0291
     35 H           2.5338   -2.0111    0.0000 H       1  UNL1        0.0291
     36 H           2.5250    1.7529    0.0000 H       1  UNL1        0.0431
     37 H           2.1264    1.0626    0.0000 H       1  UNL1        0.0431
     38 H           1.6346    0.0041    0.0000 H       1  UNL1        0.0427
     39 H           1.4635   -0.8076    0.0000 H       1  UNL1        0.0427
     40 H           3.5810    3.3318    0.0000 H       1  UNL1        0.0733
     41 H           4.1131   -3.3975    0.0000 H       1  UNL1        0.1548
     42 H           4.7315    0.2162    0.0000 H       1  UNL1        0.0658
     43 H           3.0190    3.7422    0.0000 H       1  UNL1        0.0265
     44 H           2.1748    3.5055    0.0000 H       1  UNL1        0.0265
     45 H           2.4115    2.6613    0.0000 H       1  UNL1        0.0265
     46 H           5.9252    3.0267    0.0000 H       1  UNL1        0.1028
     47 H           6.0722   -2.8093    0.0000 H       1  UNL1        0.0637
     48 H           7.0640   -1.4710    0.0000 H       1  UNL1        0.0655
     49 H           7.4408   -0.4051    0.0000 H       1  UNL1        0.2921
     50 H           6.9395    3.7013    0.0000 H       1  UNL1        0.0661
     51 H           6.0953    3.9380    0.0000 H       1  UNL1        0.0661
     52 H           5.8585    3.0938    0.0000 H       1  UNL1        0.0661
@<TRIPOS>BOND
     1     1    17    1
     2     1    23    1
     3     2    18    2
     4     3    25    1
     5     3    28    1
     6     4    25    2
     7     5    26    1
     8     5    49    1
     9     6     8    1
    10     6    14    1
    11     6    15    1
    12     7    18   am
    13     7    20    1
    14     7    41    1
    15     8     9    1
    16     8    10    1
    17     8    29    1
    18     9    13    1
    19     9    16    1
    20     9    18    1
    21    10    12    1
    22    10    30    1
    23    10    31    1
    24    11    12    1
    25    11    14    1
    26    11    17    1
    27    11    32    1
    28    12    19    1
    29    12    33    1
    30    13    15    1
    31    13    34    1
    32    13    35    1
    33    14    36    1
    34    14    37    1
    35    15    38    1
    36    15    39    1
    37    16    20   ar
    38    16    21   ar
    39    17    22    1
    40    17    40    1
    41    19    23    2
    42    19    25    1
    43    20    24   ar
    44    21    26   ar
    45    21    42    1
    46    22    43    1
    47    22    44    1
    48    22    45    1
    49    23    46    1
    50    24    27   ar
    51    24    47    1
    52    26    27   ar
    53    27    48    1
    54    28    50    1
    55    28    51    1
    56    28    52    1
