@<TRIPOS>MOLECULE
IMPHY009776
 66 71 0 0 0
SMALL
GASTEIGER

@<TRIPOS>ATOM
      1 O           6.8671   -0.8454    0.0000 O.3     1  UNL1       -0.4572
      2 O          10.3285    3.2329    0.0000 O.2     1  UNL1       -0.2896
      3 O           5.1350   -0.8454    0.0000 O.3     1  UNL1       -0.3313
      4 O          11.9378    2.6570    0.0000 O.3     1  UNL1       -0.4519
      5 O          12.7817    1.2084    0.0000 O.3     1  UNL1       -0.4526
      6 O           6.8671   -2.8454    0.0000 O.3     1  UNL1       -0.3829
      7 O           5.0971    0.1855    0.0000 O.3     1  UNL1       -0.4914
      8 O           5.1350   -3.8454    0.0000 O.3     1  UNL1       -0.3864
      9 O           3.4030   -2.8454    0.0000 O.3     1  UNL1       -0.3865
     10 O           2.5369   -1.3454    0.0000 O.3     1  UNL1       -0.3924
     11 N           8.6269    3.2171    0.0000 N.3     1  UNL1       -0.2889
     12 C           8.6230    2.2171    0.0000 C.3     1  UNL1        0.1148
     13 C           8.7237    1.2222    0.0000 C.3     1  UNL1        0.0031
     14 C           7.7551    1.7204    0.0000 C.ar    1  UNL1       -0.0125
     15 C           9.5381    2.6203    0.0000 C.2     1  UNL1        0.1919
     16 C           7.7628    3.7204    0.0000 C.3     1  UNL1        0.0038
     17 C           9.7011    1.0105    0.0000 C.ar    1  UNL1       -0.0306
     18 C           6.8910    2.2238    0.0000 C.ar    1  UNL1       -0.0371
     19 C           6.8948    3.2237    0.0000 C.3     1  UNL1       -0.0144
     20 C          10.2044    1.8746    0.0000 C.ar    1  UNL1        0.0683
     21 C           7.7671    0.6789    0.0000 C.ar    1  UNL1       -0.0105
     22 C           8.9725    4.1554    0.0000 C.3     1  UNL1       -0.0115
     23 C          11.2460    1.8866    0.0000 C.ar    1  UNL1        0.1770
     24 C           5.9790    1.7204    0.0000 C.ar    1  UNL1       -0.0128
     25 C           6.8671    0.1546    0.0000 C.ar    1  UNL1        0.1657
     26 C          10.2044    0.0985    0.0000 C.ar    1  UNL1       -0.0541
     27 C           6.0010   -1.3454    0.0000 C.3     1  UNL1        0.2310
     28 C           6.0010   -2.3454    0.0000 C.3     1  UNL1        0.1454
     29 C           5.1350   -2.8454    0.0000 C.3     1  UNL1        0.1152
     30 C           4.2690   -2.3454    0.0000 C.3     1  UNL1        0.1120
     31 C           4.2690   -1.3454    0.0000 C.3     1  UNL1        0.1140
     32 C           5.9670    0.6789    0.0000 C.ar    1  UNL1        0.1619
     33 C          11.7702    0.9865    0.0000 C.ar    1  UNL1        0.1670
     34 C          11.2460    0.0865    0.0000 C.ar    1  UNL1       -0.0158
     35 C           3.4030   -0.8454    0.0000 C.3     1  UNL1        0.0731
     36 C          12.8850    2.2386    0.0000 C.3     1  UNL1        0.2333
     37 C           4.2350    0.6922    0.0000 C.3     1  UNL1        0.0790
     38 H           8.1037    1.2246    0.0000 H       1  UNL1        0.0339
     39 H           8.6565    0.6058    0.0000 H       1  UNL1        0.0339
     40 H           8.1632    4.1938    0.0000 H       1  UNL1        0.0430
     41 H           7.3661    4.1969    0.0000 H       1  UNL1        0.0430
     42 H           6.6850    3.8072    0.0000 H       1  UNL1        0.0326
     43 H           6.2838    3.1184    0.0000 H       1  UNL1        0.0326
     44 H           8.3064    0.3730    0.0000 H       1  UNL1        0.0659
     45 H           9.5543    3.9411    0.0000 H       1  UNL1        0.0391
     46 H           9.1868    4.7372    0.0000 H       1  UNL1        0.0391
     47 H           8.3907    4.3697    0.0000 H       1  UNL1        0.0391
     48 H           5.4470    2.0387    0.0000 H       1  UNL1        0.0658
     49 H           9.8862   -0.4336    0.0000 H       1  UNL1        0.0622
     50 H           6.0010   -0.7254    0.0000 H       1  UNL1        0.1084
     51 H           6.0010   -2.9654    0.0000 H       1  UNL1        0.0683
     52 H           4.5981   -3.1554    0.0000 H       1  UNL1        0.0648
     53 H           3.7320   -2.0354    0.0000 H       1  UNL1        0.0647
     54 H           4.2690   -0.7254    0.0000 H       1  UNL1        0.0647
     55 H          11.5518   -0.4528    0.0000 H       1  UNL1        0.0655
     56 H           3.8015   -0.3705    0.0000 H       1  UNL1        0.0584
     57 H           3.0044   -0.3705    0.0000 H       1  UNL1        0.0584
     58 H          13.4920    2.1123    0.0000 H       1  UNL1        0.1166
     59 H          13.0745    2.8290    0.0000 H       1  UNL1        0.1166
     60 H           6.8671   -3.4654    0.0000 H       1  UNL1        0.2102
     61 H           4.5981   -4.1554    0.0000 H       1  UNL1        0.2100
     62 H           3.4030   -3.4654    0.0000 H       1  UNL1        0.2100
     63 H           2.0000   -1.0354    0.0000 H       1  UNL1        0.2095
     64 H           4.5491    1.2267    0.0000 H       1  UNL1        0.0660
     65 H           3.7005    1.0063    0.0000 H       1  UNL1        0.0660
     66 H           3.9209    0.1577    0.0000 H       1  UNL1        0.0660
@<TRIPOS>BOND
     1     1    25    1
     2    27     1    1
     3     2    15    2
     4     3    27    1
     5     3    31    1
     6     4    23    1
     7     4    36    1
     8     5    33    1
     9     5    36    1
    10    28     6    1
    11     6    60    1
    12     7    32    1
    13     7    37    1
    14    29     8    1
    15     8    61    1
    16    30     9    1
    17     9    62    1
    18    10    35    1
    19    10    63    1
    20    12    11    1
    21    11    16    1
    22    11    22    1
    23    12    13    1
    24    12    14    1
    25    12    15    1
    26    13    17    1
    27    13    38    1
    28    13    39    1
    29    14    18   ar
    30    14    21   ar
    31    15    20    1
    32    16    19    1
    33    16    40    1
    34    16    41    1
    35    17    20   ar
    36    17    26   ar
    37    18    19    1
    38    18    24   ar
    39    19    42    1
    40    19    43    1
    41    20    23   ar
    42    21    25   ar
    43    21    44    1
    44    22    45    1
    45    22    46    1
    46    22    47    1
    47    23    33   ar
    48    24    32   ar
    49    24    48    1
    50    25    32   ar
    51    26    34   ar
    52    26    49    1
    53    27    28    1
    54    27    50    1
    55    28    29    1
    56    28    51    1
    57    29    30    1
    58    29    52    1
    59    30    31    1
    60    30    53    1
    61    31    35    1
    62    31    54    1
    63    33    34   ar
    64    34    55    1
    65    35    56    1
    66    35    57    1
    67    36    58    1
    68    36    59    1
    69    37    64    1
    70    37    65    1
    71    37    66    1
