@<TRIPOS>MOLECULE
IMPHY009546
 50 55 0 0 0
SMALL
GASTEIGER

@<TRIPOS>ATOM
      1 O           3.2994    2.6370    0.0000 O.3     1  UNL1       -0.4856
      2 N           4.9527   -0.8251    0.0000 N.ar    1  UNL1       -0.3335
      3 C           6.3456    1.1876    0.0000 C.3     1  UNL1       -0.0106
      4 C           5.0739    1.9822    0.0000 C.3     1  UNL1       -0.0019
      5 C           6.2839   -0.2102    0.0000 C.3     1  UNL1        0.0439
      6 C           5.3327    2.9481    0.0000 C.3     1  UNL1        0.1085
      7 C           4.5961    3.9307    0.0000 C.3     1  UNL1       -0.0058
      8 C           7.1227    1.8169    0.0000 C.3     1  UNL1       -0.0439
      9 C           3.8528    1.1165    0.0000 C.ar    1  UNL1        0.0219
     10 C           6.7643    2.7505    0.0000 C.3     1  UNL1       -0.0128
     11 C           3.7962    0.0765    0.0000 C.ar    1  UNL1        0.0576
     12 C           3.0238    1.6757    0.0000 C.ar    1  UNL1        0.1267
     13 C           7.2816   -0.2771    0.0000 C.3     1  UNL1       -0.0413
     14 C           6.7248   -1.1077    0.0000 C.3     1  UNL1       -0.0413
     15 C           2.8636   -0.3874    0.0000 C.ar    1  UNL1        0.0081
     16 C           5.5915    3.9141    0.0000 C.3     1  UNL1       -0.0249
     17 C           4.2354   -1.5761    0.0000 C.ar    1  UNL1        0.0506
     18 C           3.2190   -1.3631    0.0000 C.ar    1  UNL1        0.0079
     19 C           2.0807    1.2336    0.0000 C.ar    1  UNL1       -0.0189
     20 C           2.0000    0.1951    0.0000 C.ar    1  UNL1       -0.0485
     21 C           4.5885   -2.5986    0.0000 C.ar    1  UNL1       -0.0373
     22 C           2.4852   -2.1579    0.0000 C.ar    1  UNL1       -0.0491
     23 C           2.8145   -3.1882    0.0000 C.ar    1  UNL1       -0.0497
     24 C           3.8732   -3.4101    0.0000 C.ar    1  UNL1       -0.0569
     25 C           2.1447   -3.9307    0.0000 C.3     1  UNL1       -0.0397
     26 H           6.8991    0.9084    0.0000 H       1  UNL1        0.0329
     27 H           5.5762    2.3457    0.0000 H       1  UNL1        0.0355
     28 H           4.9139    4.4631    0.0000 H       1  UNL1        0.0309
     29 H           3.9829    4.0227    0.0000 H       1  UNL1        0.0309
     30 H           7.4604    1.2969    0.0000 H       1  UNL1        0.0270
     31 H           7.6751    2.0984    0.0000 H       1  UNL1        0.0270
     32 H           7.3721    2.8728    0.0000 H       1  UNL1        0.0304
     33 H           6.7453    3.3702    0.0000 H       1  UNL1        0.0304
     34 H           6.1683   -1.3811    0.0000 H       1  UNL1        0.0252
     35 H           6.9981   -1.6642    0.0000 H       1  UNL1        0.0252
     36 H           7.2401   -0.8957    0.0000 H       1  UNL1        0.0252
     37 H           7.9002   -0.3186    0.0000 H       1  UNL1        0.0252
     38 H           7.3231    0.3415    0.0000 H       1  UNL1        0.0252
     39 H           7.2812   -0.8344    0.0000 H       1  UNL1        0.0252
     40 H           6.1904    3.7536    0.0000 H       1  UNL1        0.0268
     41 H           5.7520    4.5129    0.0000 H       1  UNL1        0.0268
     42 H           4.9926    4.0745    0.0000 H       1  UNL1        0.0268
     43 H           1.5707    1.5862    0.0000 H       1  UNL1        0.0654
     44 H           1.4417   -0.0745    0.0000 H       1  UNL1        0.0625
     45 H           5.1967   -2.7187    0.0000 H       1  UNL1        0.0638
     46 H           1.8799   -2.0237    0.0000 H       1  UNL1        0.0627
     47 H           4.0688   -3.9984    0.0000 H       1  UNL1        0.0621
     48 H           1.6843   -3.5154    0.0000 H       1  UNL1        0.0278
     49 H           1.7294   -4.3911    0.0000 H       1  UNL1        0.0278
     50 H           2.6050   -4.3460    0.0000 H       1  UNL1        0.0278
@<TRIPOS>BOND
     1     1     6    1
     2     1    12    1
     3     2     5    1
     4     2    11   ar
     5     2    17   ar
     6     3     4    1
     7     3     5    1
     8     3     8    1
     9     3    26    1
    10     4     7    1
    11     4     9    1
    12     4    27    1
    13     5    13    1
    14     5    14    1
    15     6     7    1
    16     6    10    1
    17     6    16    1
    18     7    28    1
    19     7    29    1
    20     8    10    1
    21     8    30    1
    22     8    31    1
    23     9    11   ar
    24     9    12   ar
    25    10    32    1
    26    10    33    1
    27    11    15   ar
    28    12    19   ar
    29    13    36    1
    30    13    37    1
    31    13    38    1
    32    14    34    1
    33    14    35    1
    34    14    39    1
    35    15    18   ar
    36    15    20   ar
    37    16    40    1
    38    16    41    1
    39    16    42    1
    40    17    18   ar
    41    17    21   ar
    42    18    22   ar
    43    19    20   ar
    44    19    43    1
    45    20    44    1
    46    21    24   ar
    47    21    45    1
    48    22    23   ar
    49    22    46    1
    50    23    24   ar
    51    23    25    1
    52    24    47    1
    53    25    48    1
    54    25    49    1
    55    25    50    1
