@<TRIPOS>MOLECULE
IMPHY004816
 54 56 0 0 0
SMALL
GASTEIGER

@<TRIPOS>ATOM
      1 O           4.5981    1.2500    0.0000 O.3     1  UNL1       -0.3871
      2 O           9.7942    1.2500    0.0000 O.3     1  UNL1       -0.3871
      3 N           7.1962   -0.2500    0.0000 N.3     1  UNL1       -0.2993
      4 C           6.3301    0.2500    0.0000 C.3     1  UNL1        0.0131
      5 C           8.0622    0.2500    0.0000 C.3     1  UNL1        0.0131
      6 C           6.3301    1.2500    0.0000 C.3     1  UNL1       -0.0372
      7 C           8.0622    1.2500    0.0000 C.3     1  UNL1       -0.0372
      8 C           7.1962    1.7500    0.0000 C.3     1  UNL1       -0.0502
      9 C           5.4641   -0.2500    0.0000 C.3     1  UNL1       -0.0070
     10 C           8.9282   -0.2500    0.0000 C.3     1  UNL1       -0.0070
     11 C           7.1962   -1.2500    0.0000 C.3     1  UNL1       -0.0122
     12 C           4.5981    0.2500    0.0000 C.3     1  UNL1        0.0816
     13 C           9.7942    0.2500    0.0000 C.3     1  UNL1        0.0816
     14 C          10.6603   -0.2500    0.0000 C.ar    1  UNL1       -0.0191
     15 C           3.7320   -0.2500    0.0000 C.ar    1  UNL1       -0.0191
     16 C           2.8660    0.2500    0.0000 C.ar    1  UNL1       -0.0561
     17 C          10.6603   -1.2500    0.0000 C.ar    1  UNL1       -0.0561
     18 C           3.7320   -1.2500    0.0000 C.ar    1  UNL1       -0.0561
     19 C          11.5263    0.2500    0.0000 C.ar    1  UNL1       -0.0561
     20 C           2.0000   -0.2500    0.0000 C.ar    1  UNL1       -0.0614
     21 C          11.5263   -1.7500    0.0000 C.ar    1  UNL1       -0.0614
     22 C           2.8660   -1.7500    0.0000 C.ar    1  UNL1       -0.0614
     23 C          12.3923   -0.2500    0.0000 C.ar    1  UNL1       -0.0614
     24 C           2.0000   -1.2500    0.0000 C.ar    1  UNL1       -0.0617
     25 C          12.3923   -1.2500    0.0000 C.ar    1  UNL1       -0.0617
     26 H           6.3301   -0.3700    0.0000 H       1  UNL1        0.0463
     27 H           8.0622   -0.3700    0.0000 H       1  UNL1        0.0463
     28 H           8.6728    1.1423    0.0000 H       1  UNL1        0.0280
     29 H           8.2742    1.8326    0.0000 H       1  UNL1        0.0280
     30 H           6.1181    1.8326    0.0000 H       1  UNL1        0.0280
     31 H           5.7196    1.1423    0.0000 H       1  UNL1        0.0280
     32 H           7.5947    2.2250    0.0000 H       1  UNL1        0.0266
     33 H           6.7976    2.2250    0.0000 H       1  UNL1        0.0266
     34 H           5.0656   -0.7249    0.0000 H       1  UNL1        0.0309
     35 H           5.8626   -0.7249    0.0000 H       1  UNL1        0.0309
     36 H           8.5297   -0.7249    0.0000 H       1  UNL1        0.0309
     37 H           9.3267   -0.7249    0.0000 H       1  UNL1        0.0309
     38 H           6.5762   -1.2500    0.0000 H       1  UNL1        0.0391
     39 H           7.1962   -1.8700    0.0000 H       1  UNL1        0.0391
     40 H           7.8162   -1.2500    0.0000 H       1  UNL1        0.0391
     41 H           5.1350    0.5600    0.0000 H       1  UNL1        0.0644
     42 H           9.2573    0.5600    0.0000 H       1  UNL1        0.0644
     43 H           4.0611    1.5600    0.0000 H       1  UNL1        0.2102
     44 H          10.3312    1.5600    0.0000 H       1  UNL1        0.2102
     45 H          10.1233   -1.5600    0.0000 H       1  UNL1        0.0621
     46 H           2.8660    0.8700    0.0000 H       1  UNL1        0.0621
     47 H           4.2690   -1.5600    0.0000 H       1  UNL1        0.0621
     48 H          11.5263    0.8700    0.0000 H       1  UNL1        0.0621
     49 H           1.4631    0.0600    0.0000 H       1  UNL1        0.0618
     50 H          11.5263   -2.3700    0.0000 H       1  UNL1        0.0618
     51 H           2.8660   -2.3700    0.0000 H       1  UNL1        0.0618
     52 H          12.9292    0.0600    0.0000 H       1  UNL1        0.0618
     53 H           1.4631   -1.5600    0.0000 H       1  UNL1        0.0618
     54 H          12.9292   -1.5600    0.0000 H       1  UNL1        0.0618
@<TRIPOS>BOND
     1    12     1    1
     2     1    43    1
     3    13     2    1
     4     2    44    1
     5     3     4    1
     6     3     5    1
     7     3    11    1
     8     4     6    1
     9     4     9    1
    10     4    26    1
    11     5     7    1
    12     5    10    1
    13     5    27    1
    14     6     8    1
    15     6    30    1
    16     6    31    1
    17     7     8    1
    18     7    28    1
    19     7    29    1
    20     8    32    1
    21     8    33    1
    22     9    12    1
    23     9    34    1
    24     9    35    1
    25    10    13    1
    26    10    36    1
    27    10    37    1
    28    11    38    1
    29    11    39    1
    30    11    40    1
    31    12    15    1
    32    12    41    1
    33    13    14    1
    34    13    42    1
    35    14    17   ar
    36    14    19   ar
    37    15    16   ar
    38    15    18   ar
    39    16    20   ar
    40    16    46    1
    41    17    21   ar
    42    17    45    1
    43    18    22   ar
    44    18    47    1
    45    19    23   ar
    46    19    48    1
    47    20    24   ar
    48    20    49    1
    49    21    25   ar
    50    21    50    1
    51    22    24   ar
    52    22    51    1
    53    23    25   ar
    54    23    52    1
    55    24    53    1
    56    25    54    1
