@<TRIPOS>MOLECULE
IMPHY010720
 42 46 0 0 0
SMALL
GASTEIGER

@<TRIPOS>ATOM
      1 O           6.0010   -0.5950    0.0000 O.3     1  UNL1       -0.3158
      2 O           6.8671   -3.0950    0.0000 O.3     1  UNL1       -0.3259
      3 O           7.7331   -4.5950    0.0000 O.3     1  UNL1       -0.3257
      4 O           5.1350   -3.0950    0.0000 O.3     1  UNL1       -0.2176
      5 O           3.4030   -2.0950    0.0000 O.3     1  UNL1       -0.2173
      6 O           5.1350    0.9050    0.0000 O.3     1  UNL1       -0.4440
      7 O           3.4030   -0.0950    0.0000 O.3     1  UNL1       -0.2135
      8 O           8.5991   -2.0950    0.0000 O.3     1  UNL1       -0.2149
      9 O          10.3312   -3.0950    0.0000 O.3     1  UNL1       -0.2174
     10 O          10.3312   -5.0950    0.0000 O.3     1  UNL1       -0.2176
     11 O           6.8671    2.9050    0.0000 O.2     1  UNL1       -0.4500
     12 O           6.8671   -0.0950    0.0000 O.2     1  UNL1       -0.2830
     13 O           8.6155   -0.1296    0.0000 O.3     1  UNL1       -0.2862
     14 O          10.3972    2.9291    0.0000 O.3     1  UNL1       -0.2864
     15 O           4.2690    5.4050    0.0000 O.3     1  UNL1       -0.2831
     16 O           2.5369    4.4050    0.0000 O.3     1  UNL1       -0.2831
     17 C           6.0010   -1.5950    0.0000 C.3     1  UNL1        0.1813
     18 C           5.1350   -2.0950    0.0000 C.3     1  UNL1        0.2144
     19 C           4.2690   -1.5950    0.0000 C.3     1  UNL1        0.2211
     20 C           4.2690   -0.5950    0.0000 C.3     1  UNL1        0.2542
     21 C           5.1350   -0.0950    0.0000 C.3     1  UNL1        0.3220
     22 C           6.8671   -2.0950    0.0000 C.3     1  UNL1        0.1771
     23 C           7.7331   -3.5950    0.0000 C.3     1  UNL1        0.2695
     24 C           8.5991   -3.0950    0.0000 C.3     1  UNL1        0.2406
     25 C           9.4651   -3.5950    0.0000 C.3     1  UNL1        0.2198
     26 C           9.4651   -4.5950    0.0000 C.3     1  UNL1        0.2143
     27 C           8.5991   -5.0950    0.0000 C.3     1  UNL1        0.1803
     28 C           6.0010    1.4050    0.0000 C.ar    1  UNL1        0.2144
     29 C           6.0010    2.4050    0.0000 C.ar    1  UNL1        0.1823
     30 C           6.8671    0.9050    0.0000 C.ar    1  UNL1        0.2384
     31 C           7.7331    1.4050    0.0000 C.ar    1  UNL1        0.1156
     32 C           7.7331    2.4050    0.0000 C.ar    1  UNL1        0.1549
     33 C           5.1350    2.9050    0.0000 C.ar    1  UNL1        0.0411
     34 C           8.6270    0.8703    0.0000 C.ar    1  UNL1        0.2050
     35 C           8.6270    2.9397    0.0000 C.ar    1  UNL1        0.0798
     36 C           5.1350    3.9050    0.0000 C.ar    1  UNL1        0.0485
     37 C           4.2690    2.4050    0.0000 C.ar    1  UNL1        0.0066
     38 C           9.5331    1.3842    0.0000 C.ar    1  UNL1        0.0843
     39 C           9.5331    2.4258    0.0000 C.ar    1  UNL1        0.2020
     40 C           4.2690    4.4050    0.0000 C.ar    1  UNL1        0.2344
     41 C           3.4030    2.9050    0.0000 C.ar    1  UNL1        0.0455
     42 C           3.4030    3.9050    0.0000 C.ar    1  UNL1        0.2343
@<TRIPOS>BOND
     1     1    17    1
     2     1    21    1
     3     2    22    1
     4     3    23    1
     5     3    27    1
     6     6    28    1
     7    11    29   ar
     8    11    32   ar
     9    12    30    2
    10    13    34    1
    11    14    39    1
    12    15    40    1
    13    16    42    1
    14    17    18    1
    15    17    22    1
    16    18     4    1
    17    18    19    1
    18    19     5    1
    19    19    20    1
    20    20     7    1
    21    20    21    1
    22    21     6    1
    23    23     2    1
    24    23    24    1
    25    24     8    1
    26    24    25    1
    27    25     9    1
    28    25    26    1
    29    26    10    1
    30    26    27    1
    31    28    29   ar
    32    28    30   ar
    33    29    33    1
    34    30    31   ar
    35    31    32   ar
    36    31    34   ar
    37    32    35   ar
    38    33    36   ar
    39    33    37   ar
    40    34    38   ar
    41    35    39   ar
    42    36    40   ar
    43    37    41   ar
    44    38    39   ar
    45    40    42   ar
    46    41    42   ar
