@<TRIPOS>MOLECULE
IMPHY009306
 39 39 0 0 0
SMALL
GASTEIGER

@<TRIPOS>ATOM
      1 O           6.8671   -1.4400    0.0000 O.3     1  UNL1       -0.4574
      2 O           5.1350    0.5600    0.0000 O.3     1  UNL1       -0.4511
      3 O           2.5369    0.0600    0.0000 O.3     1  UNL1       -0.3837
      4 O           6.0010    2.0600    0.0000 O.2     1  UNL1       -0.2456
      5 O           7.7331    0.0600    0.0000 O.2     1  UNL1       -0.2511
      6 C           6.0010    0.0600    0.0000 C.3     1  UNL1       -0.0120
      7 C           6.0010   -0.9400    0.0000 C.3     1  UNL1        0.1213
      8 C           6.8671    0.5600    0.0000 C.3     1  UNL1       -0.0497
      9 C           4.2690    0.0600    0.0000 C.3     1  UNL1        0.1509
     10 C           6.8671    1.5600    0.0000 C.3     1  UNL1       -0.0558
     11 C           5.1350   -1.4400    0.0000 C.2     1  UNL1       -0.0444
     12 C           3.4030    0.5600    0.0000 C.3     1  UNL1        0.1143
     13 C           4.2690   -0.9400    0.0000 C.2     1  UNL1       -0.0416
     14 C           3.4030    1.5600    0.0000 C.2     1  UNL1       -0.0453
     15 C           7.7331    2.0600    0.0000 C.3     1  UNL1       -0.0653
     16 C           4.2690    2.0600    0.0000 C.2     1  UNL1        0.0211
     17 C           5.1350    1.5600    0.0000 C.2     1  UNL1        0.3324
     18 C           7.7331   -0.9400    0.0000 C.2     1  UNL1        0.3045
     19 C           8.5991   -1.4400    0.0000 C.3     1  UNL1        0.0333
     20 H           5.7890    0.6426    0.0000 H       1  UNL1        0.0304
     21 H           5.3905   -0.0477    0.0000 H       1  UNL1        0.0304
     22 H           6.5380   -0.6300    0.0000 H       1  UNL1        0.0779
     23 H           7.0791   -0.0226    0.0000 H       1  UNL1        0.0266
     24 H           7.4776    0.6677    0.0000 H       1  UNL1        0.0266
     25 H           4.8059   -0.2500    0.0000 H       1  UNL1        0.0809
     26 H           6.6550    2.1426    0.0000 H       1  UNL1        0.0263
     27 H           6.2565    1.4523    0.0000 H       1  UNL1        0.0263
     28 H           5.1350   -2.0600    0.0000 H       1  UNL1        0.0606
     29 H           3.4030   -0.0600    0.0000 H       1  UNL1        0.0678
     30 H           3.7320   -1.2500    0.0000 H       1  UNL1        0.0607
     31 H           2.8660    1.8700    0.0000 H       1  UNL1        0.0601
     32 H           8.0431    1.5231    0.0000 H       1  UNL1        0.0230
     33 H           8.2700    2.3700    0.0000 H       1  UNL1        0.0230
     34 H           7.4231    2.5969    0.0000 H       1  UNL1        0.0230
     35 H           4.2690    2.6800    0.0000 H       1  UNL1        0.0686
     36 H           2.0000    0.3700    0.0000 H       1  UNL1        0.2104
     37 H           8.2891   -1.9769    0.0000 H       1  UNL1        0.0342
     38 H           9.1360   -1.7500    0.0000 H       1  UNL1        0.0342
     39 H           8.9091   -0.9031    0.0000 H       1  UNL1        0.0342
@<TRIPOS>BOND
     1     7     1    1
     2     1    18    1
     3     2     9    1
     4     2    17    1
     5    12     3    1
     6     3    36    1
     7     4    17    2
     8     5    18    2
     9     6     7    1
    10     6     8    1
    11     6    20    1
    12     6    21    1
    13     7    11    1
    14     7    22    1
    15     8    10    1
    16     8    23    1
    17     8    24    1
    18     9    12    1
    19     9    13    1
    20     9    25    1
    21    10    15    1
    22    10    26    1
    23    10    27    1
    24    11    13    2
    25    11    28    1
    26    12    14    1
    27    12    29    1
    28    13    30    1
    29    14    16    2
    30    14    31    1
    31    15    32    1
    32    15    33    1
    33    15    34    1
    34    16    17    1
    35    16    35    1
    36    18    19    1
    37    19    37    1
    38    19    38    1
    39    19    39    1
