@<TRIPOS>MOLECULE
IMPHY012997
 51 54 0 0 0
SMALL
GASTEIGER

@<TRIPOS>ATOM
      1 O           6.0427   -2.0357    0.0000 O.3     1  UNL1       -0.3221
      2 O           7.7748   -2.0357    0.0000 O.3     1  UNL1       -0.4571
      3 O           6.0427   -5.0357    0.0000 O.3     1  UNL1       -0.3863
      4 O           4.3107   -4.0357    0.0000 O.3     1  UNL1       -0.3860
      5 O           7.7748   -4.0357    0.0000 O.3     1  UNL1       -0.3829
      6 O           3.4446   -2.5357    0.0000 O.3     1  UNL1       -0.4788
      7 O           4.3107   -1.0357    0.0000 O.2     1  UNL1       -0.2480
      8 O           6.0427    1.9643    0.0000 O.2     1  UNL1       -0.4544
      9 O           9.5068   -1.0357    0.0000 O.3     1  UNL1       -0.5033
     10 O           3.4446    0.4643    0.0000 O.2     1  UNL1       -0.2869
     11 O           2.5405    1.9612    0.0000 O.3     1  UNL1       -0.5058
     12 O           4.2986    5.0336    0.0000 O.3     1  UNL1       -0.5065
     13 C           6.0427   -4.0357    0.0000 C.3     1  UNL1        0.1157
     14 C           5.1767   -3.5357    0.0000 C.3     1  UNL1        0.1202
     15 C           6.9088   -3.5357    0.0000 C.3     1  UNL1        0.1455
     16 C           5.1767   -2.5357    0.0000 C.3     1  UNL1        0.1869
     17 C           6.9088   -2.5357    0.0000 C.3     1  UNL1        0.2314
     18 C           4.3107   -2.0357    0.0000 C.2     1  UNL1        0.3367
     19 C           7.7748   -1.0357    0.0000 C.ar    1  UNL1        0.1658
     20 C           6.9088   -0.5357    0.0000 C.ar    1  UNL1       -0.0055
     21 C           8.6408   -0.5357    0.0000 C.ar    1  UNL1        0.1586
     22 C           6.9088    0.4643    0.0000 C.ar    1  UNL1        0.0211
     23 C           8.6408    0.4643    0.0000 C.ar    1  UNL1       -0.0159
     24 C           6.0427    0.9643    0.0000 C.ar    1  UNL1        0.1393
     25 C           7.7748    0.9643    0.0000 C.ar    1  UNL1       -0.0474
     26 C           4.3107    1.9643    0.0000 C.ar    1  UNL1        0.1055
     27 C           5.1767    2.4643    0.0000 C.ar    1  UNL1        0.1462
     28 C           5.1767    0.4643    0.0000 C.ar    1  UNL1        0.0288
     29 C           4.3107    0.9643    0.0000 C.ar    1  UNL1        0.1966
     30 C           3.4007    2.4712    0.0000 C.ar    1  UNL1        0.1347
     31 C           5.1928    3.5058    0.0000 C.ar    1  UNL1        0.0231
     32 C           4.2947    4.0336    0.0000 C.ar    1  UNL1        0.1239
     33 C           3.3926    3.5128    0.0000 C.ar    1  UNL1        0.0223
     34 H           5.5058   -4.3457    0.0000 H       1  UNL1        0.0648
     35 H           4.6398   -3.2257    0.0000 H       1  UNL1        0.0652
     36 H           6.9088   -4.1557    0.0000 H       1  UNL1        0.0683
     37 H           5.1767   -1.9157    0.0000 H       1  UNL1        0.0742
     38 H           6.9088   -1.9157    0.0000 H       1  UNL1        0.1084
     39 H           6.5797   -5.3457    0.0000 H       1  UNL1        0.2100
     40 H           4.3107   -4.6557    0.0000 H       1  UNL1        0.2100
     41 H           8.3117   -3.7257    0.0000 H       1  UNL1        0.2102
     42 H           6.3718   -0.8457    0.0000 H       1  UNL1        0.0662
     43 H           2.9077   -2.2257    0.0000 H       1  UNL1        0.2951
     44 H           9.1777    0.7743    0.0000 H       1  UNL1        0.0655
     45 H           7.7748    1.5843    0.0000 H       1  UNL1        0.0626
     46 H           5.1767   -0.1557    0.0000 H       1  UNL1        0.0693
     47 H          10.0438   -0.7257    0.0000 H       1  UNL1        0.2923
     48 H           5.7332    3.8096    0.0000 H       1  UNL1        0.0691
     49 H           2.8545    3.8207    0.0000 H       1  UNL1        0.0691
     50 H           2.0000    2.2650    0.0000 H       1  UNL1        0.2922
     51 H           3.7628    5.3457    0.0000 H       1  UNL1        0.2921
@<TRIPOS>BOND
     1     1    16    1
     2     1    17    1
     3    17     2    1
     4     2    19    1
     5    13     3    1
     6     3    39    1
     7    14     4    1
     8     4    40    1
     9    15     5    1
    10     5    41    1
    11     6    18    1
    12     6    43    1
    13     7    18    2
    14     8    24   ar
    15     8    27   ar
    16     9    21    1
    17     9    47    1
    18    10    29    2
    19    11    30    1
    20    11    50    1
    21    12    32    1
    22    12    51    1
    23    13    14    1
    24    13    15    1
    25    13    34    1
    26    14    16    1
    27    14    35    1
    28    15    17    1
    29    15    36    1
    30    16    18    1
    31    16    37    1
    32    17    38    1
    33    19    20   ar
    34    19    21   ar
    35    20    22   ar
    36    20    42    1
    37    21    23   ar
    38    22    24    1
    39    22    25   ar
    40    23    25   ar
    41    23    44    1
    42    24    28   ar
    43    25    45    1
    44    26    27   ar
    45    26    29   ar
    46    26    30   ar
    47    27    31   ar
    48    28    29   ar
    49    28    46    1
    50    30    33   ar
    51    31    32   ar
    52    31    48    1
    53    32    33   ar
    54    33    49    1
