@<TRIPOS>MOLECULE
IMPHY000524
 19 21 0 0 0
SMALL
GASTEIGER

@<TRIPOS>ATOM
      1 C        2500.1500 2537.6300    0.0000 C.3     1  UNL1        0.0371
      2 C        2465.5000 2557.5900    0.0000 C.3     1  UNL1        0.0303
      3 C        2430.8500 2537.6300    0.0000 C.2     1  UNL1       -0.0342
      4 C        2396.2000 2557.5900    0.0000 C.2     1  UNL1       -0.0478
      5 C        2361.5500 2537.6300    0.0000 C.3     1  UNL1        0.0260
      6 C        2396.2000 2597.6000    0.0000 C.3     1  UNL1        0.0260
      7 C        2500.1500 2497.6200    0.0000 C.2     1  UNL1        0.0516
      8 C        2534.7000 2477.4600    0.0000 C.2     1  UNL1        0.0298
      9 C        2534.7000 2437.0500    0.0000 C.3     1  UNL1        0.1923
     10 O        2465.6000 2437.0500    0.0000 O.3     1  UNL1       -0.4450
     11 C        2465.6000 2477.4600    0.0000 C.2     1  UNL1        0.3369
     12 O        2430.9500 2497.4200    0.0000 O.2     1  UNL1       -0.2453
     13 C        2569.2500 2416.9000    0.0000 C.3     1  UNL1        0.0777
     14 C        2603.8000 2437.0500    0.0000 C.3     1  UNL1        0.1243
     15 C        2603.8000 2477.4600    0.0000 C.3     1  UNL1        0.1740
     16 C        2569.2500 2497.6200    0.0000 C.3     1  UNL1        0.2028
     17 O        2569.2500 2537.6300    0.0000 O.3     1  UNL1       -0.2158
     18 O        2638.4500 2457.2100    0.0000 O.3     1  UNL1       -0.3531
     19 C        2623.8600 2402.4000    0.0000 C.3     1  UNL1        0.0324
@<TRIPOS>BOND
     1     1     2    1
     2     1     7    1
     3     2     3    1
     4     3     4    2
     5     4     5    1
     6     4     6    1
     7     7     8    2
     8     7    11    1
     9     8     9    1
    10     8    16    1
    11     9    10    1
    12     9    13    1
    13    11    10    1
    14    11    12    2
    15    13    14    1
    16    14    18    1
    17    14    19    1
    18    15    14    1
    19    15    18    1
    20    16    15    1
    21    16    17    1
