@<TRIPOS>MOLECULE
IMPHY008631
 41 42 0 0 0
SMALL
GASTEIGER

@<TRIPOS>ATOM
      1 O           5.1350   -0.1550    0.0000 O.3     1  UNL1       -0.3405
      2 O           6.8671   -0.1550    0.0000 O.3     1  UNL1       -0.3407
      3 O           5.1350   -3.1550    0.0000 O.3     1  UNL1       -0.3864
      4 O           6.8671   -2.1550    0.0000 O.3     1  UNL1       -0.3841
      5 O           3.4030   -2.1550    0.0000 O.3     1  UNL1       -0.3865
      6 O           2.5369   -0.6550    0.0000 O.3     1  UNL1       -0.3924
      7 O           5.1350    2.8450    0.0000 O.3     1  UNL1       -0.3877
      8 N           8.5991   -1.1550    0.0000 N.1     1  UNL1       -0.1915
      9 C           5.1350   -2.1550    0.0000 C.3     1  UNL1        0.1141
     10 C           6.0010   -1.6550    0.0000 C.3     1  UNL1        0.1341
     11 C           4.2690   -1.6550    0.0000 C.3     1  UNL1        0.1119
     12 C           6.0010   -0.6550    0.0000 C.3     1  UNL1        0.1886
     13 C           4.2690   -0.6550    0.0000 C.3     1  UNL1        0.1130
     14 C           6.8671    0.8450    0.0000 C.3     1  UNL1        0.0900
     15 C           3.4030   -0.1550    0.0000 C.3     1  UNL1        0.0730
     16 C           6.0010    1.3450    0.0000 C.3     1  UNL1        0.0074
     17 C           6.0010    2.3450    0.0000 C.3     1  UNL1        0.0763
     18 C           7.7331    1.3450    0.0000 C.2     1  UNL1       -0.0088
     19 C           6.8671    2.8450    0.0000 C.2     1  UNL1       -0.0555
     20 C           7.7331    2.3450    0.0000 C.2     1  UNL1       -0.0570
     21 C           8.5991    0.8450    0.0000 C.2     1  UNL1        0.0210
     22 C           8.5991   -0.1550    0.0000 C.1     1  UNL1        0.0917
     23 H           4.5981   -2.4650    0.0000 H       1  UNL1        0.0648
     24 H           6.0010   -2.2750    0.0000 H       1  UNL1        0.0671
     25 H           4.2690   -2.2750    0.0000 H       1  UNL1        0.0647
     26 H           6.0010   -0.0350    0.0000 H       1  UNL1        0.0938
     27 H           4.2690   -0.0350    0.0000 H       1  UNL1        0.0647
     28 H           7.4040    0.5350    0.0000 H       1  UNL1        0.0648
     29 H           3.8015    0.3199    0.0000 H       1  UNL1        0.0584
     30 H           3.0044    0.3199    0.0000 H       1  UNL1        0.0584
     31 H           5.3905    1.4527    0.0000 H       1  UNL1        0.0322
     32 H           5.7890    0.7624    0.0000 H       1  UNL1        0.0322
     33 H           6.0010    2.9650    0.0000 H       1  UNL1        0.0638
     34 H           4.5981   -3.4650    0.0000 H       1  UNL1        0.2100
     35 H           6.8671   -2.7750    0.0000 H       1  UNL1        0.2101
     36 H           3.4030   -2.7750    0.0000 H       1  UNL1        0.2100
     37 H           6.8671    3.4650    0.0000 H       1  UNL1        0.0598
     38 H           8.2700    2.6550    0.0000 H       1  UNL1        0.0619
     39 H           2.0000   -0.3450    0.0000 H       1  UNL1        0.2095
     40 H           9.1360    1.1550    0.0000 H       1  UNL1        0.0736
     41 H           5.1350    3.4650    0.0000 H       1  UNL1        0.2102
@<TRIPOS>BOND
     1     1    12    1
     2     1    13    1
     3    12     2    1
     4    14     2    1
     5     9     3    1
     6     3    34    1
     7    10     4    1
     8     4    35    1
     9    11     5    1
    10     5    36    1
    11     6    15    1
    12     6    39    1
    13    17     7    1
    14     7    41    1
    15     8    22    3
    16     9    10    1
    17     9    11    1
    18     9    23    1
    19    10    12    1
    20    10    24    1
    21    11    13    1
    22    11    25    1
    23    12    26    1
    24    13    15    1
    25    13    27    1
    26    14    16    1
    27    14    18    1
    28    14    28    1
    29    15    29    1
    30    15    30    1
    31    16    17    1
    32    16    31    1
    33    16    32    1
    34    17    19    1
    35    17    33    1
    36    18    20    1
    37    18    21    2
    38    19    20    2
    39    19    37    1
    40    20    38    1
    41    21    22    1
    42    21    40    1
