@<TRIPOS>MOLECULE
IMPHY011501
 75 80 0 0 0
SMALL
GASTEIGER

@<TRIPOS>ATOM
      1 O           6.0010   -3.7135    0.0000 O.3     1  UNL1       -0.3391
      2 O           5.1628   -1.1056    0.0000 O.3     1  UNL1       -0.4853
      3 O           4.2690   -3.7135    0.0000 O.3     1  UNL1       -0.3405
      4 O           8.0357    0.7784    0.0000 O.3     1  UNL1       -0.4833
      5 O           6.0010   -5.7135    0.0000 O.3     1  UNL1       -0.3841
      6 O          10.1183    2.5104    0.0000 O.3     1  UNL1       -0.4879
      7 O           4.2690   -6.7135    0.0000 O.3     1  UNL1       -0.3864
      8 O           2.5369   -5.7135    0.0000 O.3     1  UNL1       -0.3865
      9 O           6.5557    3.3880    0.0000 O.2     1  UNL1       -0.2912
     10 O           2.5369   -2.7135    0.0000 O.3     1  UNL1       -0.3924
     11 O           8.0378    6.1555    0.0000 O.3     1  UNL1       -0.4914
     12 O          10.1295    6.1555    0.0000 O.3     1  UNL1       -0.4913
     13 C           6.0010   -2.7135    0.0000 C.3     1  UNL1        0.1039
     14 C           6.0010   -1.7135    0.0000 C.3     1  UNL1        0.1327
     15 C           6.8393   -1.1056    0.0000 C.3     1  UNL1        0.0192
     16 C           5.1350   -4.2135    0.0000 C.3     1  UNL1        0.1887
     17 C           6.5218   -0.1199    0.0000 C.ar    1  UNL1        0.0401
     18 C           5.1350   -5.2135    0.0000 C.3     1  UNL1        0.1341
     19 C           4.2690   -5.7135    0.0000 C.3     1  UNL1        0.1141
     20 C           8.0490    2.5104    0.0000 C.3     1  UNL1        0.0908
     21 C           3.4030   -5.2135    0.0000 C.3     1  UNL1        0.1119
     22 C           8.5423    1.6406    0.0000 C.3     1  UNL1        0.1478
     23 C           3.4030   -4.2135    0.0000 C.3     1  UNL1        0.1130
     24 C           5.4802   -0.1199    0.0000 C.ar    1  UNL1        0.1279
     25 C           7.0357    0.7861    0.0000 C.ar    1  UNL1        0.1383
     26 C           7.0010   -2.7135    0.0000 C.3     1  UNL1       -0.0325
     27 C           5.0010   -2.7135    0.0000 C.3     1  UNL1       -0.0325
     28 C           6.5424    1.6560    0.0000 C.ar    1  UNL1        0.0603
     29 C           7.0490    2.5181    0.0000 C.2     1  UNL1        0.1778
     30 C           8.5629    3.4165    0.0000 C.ar    1  UNL1        0.0122
     31 C           9.5837    1.6165    0.0000 C.3     1  UNL1        0.1273
     32 C           4.9664    0.7861    0.0000 C.ar    1  UNL1       -0.0188
     33 C           5.5010    1.6801    0.0000 C.ar    1  UNL1       -0.0442
     34 C           2.5369   -3.7135    0.0000 C.3     1  UNL1        0.0730
     35 C           9.6045    3.4165    0.0000 C.ar    1  UNL1        0.1283
     36 C           8.0060    4.3476    0.0000 C.ar    1  UNL1       -0.0088
     37 C          10.1614    4.3476    0.0000 C.ar    1  UNL1        0.0257
     38 C           8.5412    5.2914    0.0000 C.ar    1  UNL1        0.1620
     39 C           9.6262    5.2914    0.0000 C.ar    1  UNL1        0.1650
     40 C           8.5345    7.0235    0.0000 C.3     1  UNL1        0.0790
     41 C          11.1295    6.1517    0.0000 C.3     1  UNL1        0.0790
     42 H           5.4487   -1.9952    0.0000 H       1  UNL1        0.0765
     43 H           7.1485   -1.6429    0.0000 H       1  UNL1        0.0352
     44 H           7.4062   -0.8545    0.0000 H       1  UNL1        0.0352
     45 H           5.1350   -3.5935    0.0000 H       1  UNL1        0.0938
     46 H           5.1350   -5.8335    0.0000 H       1  UNL1        0.0671
     47 H           3.7320   -6.0235    0.0000 H       1  UNL1        0.0648
     48 H           7.7390    3.0473    0.0000 H       1  UNL1        0.0468
     49 H           2.8660   -4.9035    0.0000 H       1  UNL1        0.0647
     50 H           8.8440    1.0989    0.0000 H       1  UNL1        0.0778
     51 H           3.4030   -3.5935    0.0000 H       1  UNL1        0.0647
     52 H           7.0010   -3.3335    0.0000 H       1  UNL1        0.0258
     53 H           7.6210   -2.7135    0.0000 H       1  UNL1        0.0258
     54 H           7.0010   -2.0935    0.0000 H       1  UNL1        0.0258
     55 H           5.0010   -2.0935    0.0000 H       1  UNL1        0.0258
     56 H           4.3810   -2.7135    0.0000 H       1  UNL1        0.0258
     57 H           5.0010   -3.3335    0.0000 H       1  UNL1        0.0258
     58 H           9.4635    1.0082    0.0000 H       1  UNL1        0.0734
     59 H          10.1624    1.3940    0.0000 H       1  UNL1        0.0734
     60 H           4.3464    0.7933    0.0000 H       1  UNL1        0.0654
     61 H           5.2014    2.2229    0.0000 H       1  UNL1        0.0627
     62 H           1.9264   -3.6058    0.0000 H       1  UNL1        0.0584
     63 H           2.3249   -4.2961    0.0000 H       1  UNL1        0.0584
     64 H           6.0010   -6.3335    0.0000 H       1  UNL1        0.2101
     65 H           3.7320   -7.0235    0.0000 H       1  UNL1        0.2100
     66 H           2.0000   -5.4035    0.0000 H       1  UNL1        0.2100
     67 H           7.3860    4.3405    0.0000 H       1  UNL1        0.0659
     68 H          10.7814    4.3405    0.0000 H       1  UNL1        0.0692
     69 H           2.0000   -2.4035    0.0000 H       1  UNL1        0.2095
     70 H           9.0726    6.7155    0.0000 H       1  UNL1        0.0660
     71 H           8.8424    7.5616    0.0000 H       1  UNL1        0.0660
     72 H           7.9964    7.3314    0.0000 H       1  UNL1        0.0660
     73 H          11.1271    5.5317    0.0000 H       1  UNL1        0.0660
     74 H          11.7495    6.1493    0.0000 H       1  UNL1        0.0660
     75 H          11.1319    6.7717    0.0000 H       1  UNL1        0.0660
@<TRIPOS>BOND
     1     1    13    1
     2     1    16    1
     3     2    14    1
     4     2    24    1
     5     3    16    1
     6     3    23    1
     7     4    22    1
     8     4    25    1
     9     5    18    1
    10     5    64    1
    11     6    31    1
    12     6    35    1
    13     7    19    1
    14     7    65    1
    15     8    21    1
    16     8    66    1
    17     9    29    2
    18    10    34    1
    19    10    69    1
    20    11    38    1
    21    11    40    1
    22    12    39    1
    23    12    41    1
    24    13    14    1
    25    13    26    1
    26    13    27    1
    27    14    15    1
    28    14    42    1
    29    15    17    1
    30    15    43    1
    31    15    44    1
    32    16    18    1
    33    16    45    1
    34    17    24   ar
    35    17    25   ar
    36    18    19    1
    37    18    46    1
    38    19    21    1
    39    19    47    1
    40    20    22    1
    41    20    29    1
    42    20    30    1
    43    20    48    1
    44    21    23    1
    45    21    49    1
    46    22    31    1
    47    22    50    1
    48    23    34    1
    49    23    51    1
    50    24    32   ar
    51    25    28   ar
    52    26    52    1
    53    26    53    1
    54    26    54    1
    55    27    55    1
    56    27    56    1
    57    27    57    1
    58    28    29    1
    59    28    33   ar
    60    30    35   ar
    61    30    36   ar
    62    31    58    1
    63    31    59    1
    64    32    33   ar
    65    32    60    1
    66    33    61    1
    67    34    62    1
    68    34    63    1
    69    35    37   ar
    70    36    38   ar
    71    36    67    1
    72    37    39   ar
    73    37    68    1
    74    38    39   ar
    75    40    70    1
    76    40    71    1
    77    40    72    1
    78    41    73    1
    79    41    74    1
    80    41    75    1
