@<TRIPOS>MOLECULE
IMPHY003089
 42 43 0 0 0
SMALL
GASTEIGER

@<TRIPOS>ATOM
      1 O           4.2690   -0.8940    0.0000 O.3     1  UNL1       -0.3405
      2 O           6.0010   -0.8940    0.0000 O.3     1  UNL1       -0.3486
      3 O           4.2690   -3.8940    0.0000 O.3     1  UNL1       -0.3864
      4 O           2.5369   -2.8940    0.0000 O.3     1  UNL1       -0.3865
      5 O           6.0010   -2.8940    0.0000 O.3     1  UNL1       -0.3841
      6 O           2.5369    0.1060    0.0000 O.3     1  UNL1       -0.3924
      7 O           7.7331    1.1060    0.0000 O.3     1  UNL1       -0.3804
      8 O           5.3671    4.2040    0.0000 O.2     1  UNL1       -0.2879
      9 C           4.2690   -2.8940    0.0000 C.3     1  UNL1        0.1141
     10 C           3.4030   -2.3940    0.0000 C.3     1  UNL1        0.1119
     11 C           5.1350   -2.3940    0.0000 C.3     1  UNL1        0.1341
     12 C           3.4030   -1.3940    0.0000 C.3     1  UNL1        0.1130
     13 C           5.1350   -1.3940    0.0000 C.3     1  UNL1        0.1879
     14 C           2.5369   -0.8940    0.0000 C.3     1  UNL1        0.0730
     15 C           6.0010    0.1060    0.0000 C.3     1  UNL1        0.0540
     16 C           6.8671    0.6060    0.0000 C.3     1  UNL1        0.0069
     17 C           6.8671    1.6060    0.0000 C.3     1  UNL1        0.1052
     18 C           7.3671    2.4720    0.0000 C.2     1  UNL1       -0.0453
     19 C           5.8671    1.6060    0.0000 C.2     1  UNL1       -0.0453
     20 C           6.8671    3.3380    0.0000 C.2     1  UNL1       -0.0159
     21 C           5.3671    2.4720    0.0000 C.2     1  UNL1       -0.0159
     22 C           5.8671    3.3380    0.0000 C.2     1  UNL1        0.1786
     23 H           4.8059   -3.2040    0.0000 H       1  UNL1        0.0648
     24 H           3.4030   -3.0140    0.0000 H       1  UNL1        0.0647
     25 H           5.6720   -2.0840    0.0000 H       1  UNL1        0.0671
     26 H           3.4030   -0.7740    0.0000 H       1  UNL1        0.0647
     27 H           5.1350   -0.7740    0.0000 H       1  UNL1        0.0937
     28 H           1.9264   -0.7864    0.0000 H       1  UNL1        0.0584
     29 H           2.3249   -1.4766    0.0000 H       1  UNL1        0.0584
     30 H           5.7890    0.6886    0.0000 H       1  UNL1        0.0562
     31 H           5.3905   -0.0017    0.0000 H       1  UNL1        0.0562
     32 H           7.0791    0.0234    0.0000 H       1  UNL1        0.0322
     33 H           7.4776    0.7136    0.0000 H       1  UNL1        0.0322
     34 H           3.7320   -4.2040    0.0000 H       1  UNL1        0.2100
     35 H           2.0000   -2.5840    0.0000 H       1  UNL1        0.2100
     36 H           6.5380   -2.5840    0.0000 H       1  UNL1        0.2101
     37 H           7.9871    2.4720    0.0000 H       1  UNL1        0.0605
     38 H           5.5571    1.0690    0.0000 H       1  UNL1        0.0605
     39 H           2.0000    0.4160    0.0000 H       1  UNL1        0.2095
     40 H           8.2700    1.4160    0.0000 H       1  UNL1        0.2110
     41 H           7.1771    3.8750    0.0000 H       1  UNL1        0.0654
     42 H           4.7471    2.4720    0.0000 H       1  UNL1        0.0654
@<TRIPOS>BOND
     1     1    12    1
     2     1    13    1
     3    13     2    1
     4     2    15    1
     5     9     3    1
     6     3    34    1
     7    10     4    1
     8     4    35    1
     9    11     5    1
    10     5    36    1
    11     6    14    1
    12     6    39    1
    13     7    17    1
    14     7    40    1
    15     8    22    2
    16     9    10    1
    17     9    11    1
    18     9    23    1
    19    10    12    1
    20    10    24    1
    21    11    13    1
    22    11    25    1
    23    12    14    1
    24    12    26    1
    25    13    27    1
    26    14    28    1
    27    14    29    1
    28    15    16    1
    29    15    30    1
    30    15    31    1
    31    16    17    1
    32    16    32    1
    33    16    33    1
    34    17    18    1
    35    17    19    1
    36    18    20    2
    37    18    37    1
    38    19    21    2
    39    19    38    1
    40    20    22    1
    41    20    41    1
    42    21    22    1
    43    21    42    1
