@<TRIPOS>MOLECULE
IMPHY006251
 43 44 0 0 0
SMALL
GASTEIGER

@<TRIPOS>ATOM
      1 O           5.4641    1.4050    0.0000 O.3     1  UNL1       -0.4800
      2 O           3.7320    0.4050    0.0000 O.3     1  UNL1       -0.3834
      3 O           7.1962    0.4050    0.0000 O.3     1  UNL1       -0.3913
      4 O           2.8660   -3.0950    0.0000 O.3     1  UNL1       -0.4914
      5 O           5.4641    3.4050    0.0000 O.3     1  UNL1       -0.4915
      6 O           4.5981   -4.0950    0.0000 O.3     1  UNL1       -0.5033
      7 C           5.4641    0.4050    0.0000 C.3     1  UNL1        0.1530
      8 C           4.5981   -0.0950    0.0000 C.3     1  UNL1        0.1192
      9 C           4.5981   -1.0950    0.0000 C.ar    1  UNL1       -0.0119
     10 C           6.3301   -0.0950    0.0000 C.3     1  UNL1        0.0839
     11 C           3.7320   -1.5950    0.0000 C.ar    1  UNL1       -0.0106
     12 C           5.4641   -1.5950    0.0000 C.ar    1  UNL1       -0.0523
     13 C           6.3301    1.9050    0.0000 C.ar    1  UNL1        0.1625
     14 C           3.7320   -2.5950    0.0000 C.ar    1  UNL1        0.1616
     15 C           5.4641   -2.5950    0.0000 C.ar    1  UNL1       -0.0162
     16 C           4.5981   -3.0950    0.0000 C.ar    1  UNL1        0.1585
     17 C           6.3301    2.9050    0.0000 C.ar    1  UNL1        0.1615
     18 C           7.1962    1.4050    0.0000 C.ar    1  UNL1       -0.0163
     19 C           7.1962    3.4050    0.0000 C.ar    1  UNL1       -0.0163
     20 C           8.0622    1.9050    0.0000 C.ar    1  UNL1       -0.0581
     21 C           8.0622    2.9050    0.0000 C.ar    1  UNL1       -0.0581
     22 C           2.0000   -2.5950    0.0000 C.3     1  UNL1        0.0790
     23 C           5.4641    4.4050    0.0000 C.3     1  UNL1        0.0790
     24 H           6.0010    0.7150    0.0000 H       1  UNL1        0.0786
     25 H           4.5981    0.5250    0.0000 H       1  UNL1        0.0682
     26 H           5.9316   -0.5699    0.0000 H       1  UNL1        0.0595
     27 H           6.7287   -0.5699    0.0000 H       1  UNL1        0.0595
     28 H           3.1951   -1.2850    0.0000 H       1  UNL1        0.0659
     29 H           6.0010   -1.2850    0.0000 H       1  UNL1        0.0622
     30 H           3.7320    1.0250    0.0000 H       1  UNL1        0.2104
     31 H           6.0010   -2.9050    0.0000 H       1  UNL1        0.0655
     32 H           7.1962    0.7850    0.0000 H       1  UNL1        0.0655
     33 H           7.7331    0.0950    0.0000 H       1  UNL1        0.2096
     34 H           7.1962    4.0250    0.0000 H       1  UNL1        0.0655
     35 H           8.5991    1.5950    0.0000 H       1  UNL1        0.0619
     36 H           8.5991    3.2150    0.0000 H       1  UNL1        0.0619
     37 H           5.1350   -4.4050    0.0000 H       1  UNL1        0.2923
     38 H           2.3100   -2.0581    0.0000 H       1  UNL1        0.0660
     39 H           1.4631   -2.2850    0.0000 H       1  UNL1        0.0660
     40 H           1.6900   -3.1319    0.0000 H       1  UNL1        0.0660
     41 H           6.0841    4.4050    0.0000 H       1  UNL1        0.0660
     42 H           5.4641    5.0250    0.0000 H       1  UNL1        0.0660
     43 H           4.8441    4.4050    0.0000 H       1  UNL1        0.0660
@<TRIPOS>BOND
     1     1     7    1
     2     1    13    1
     3     2     8    1
     4     2    30    1
     5     3    10    1
     6     3    33    1
     7     4    14    1
     8     4    22    1
     9     5    17    1
    10     5    23    1
    11     6    16    1
    12     6    37    1
    13     7     8    1
    14     7    10    1
    15     7    24    1
    16     8     9    1
    17     8    25    1
    18     9    11   ar
    19     9    12   ar
    20    10    26    1
    21    10    27    1
    22    11    14   ar
    23    11    28    1
    24    12    15   ar
    25    12    29    1
    26    13    17   ar
    27    13    18   ar
    28    14    16   ar
    29    15    16   ar
    30    15    31    1
    31    17    19   ar
    32    18    20   ar
    33    18    32    1
    34    19    21   ar
    35    19    34    1
    36    20    21   ar
    37    20    35    1
    38    21    36    1
    39    22    38    1
    40    22    39    1
    41    22    40    1
    42    23    41    1
    43    23    42    1
    44    23    43    1
