@<TRIPOS>MOLECULE
IMPHY017939
 20 21 0 0 0
SMALL
GASTEIGER

@<TRIPOS>ATOM
      1 O           6.4103   -1.8717    0.0000 O.3     1  UNL1       -0.4452
      2 O           7.9939   -1.0670    0.0000 O.2     1  UNL1       -0.2453
      3 O           2.0000    1.4330    0.0000 O.3     1  UNL1       -0.4415
      4 O           3.7321    1.4330    0.0000 O.2     1  UNL1       -0.2452
      5 C           3.7321   -1.5670    0.0000 C.3     1  UNL1        0.0267
      6 C           3.7321   -0.5670    0.0000 C.3     1  UNL1        0.0367
      7 C           4.5981   -2.0670    0.0000 C.3     1  UNL1        0.0523
      8 C           5.4641   -1.5670    0.0000 C.3     1  UNL1        0.1877
      9 C           4.5981   -0.0670    0.0000 C.3     1  UNL1        0.0303
     10 C           5.4641   -0.5670    0.0000 C.2     1  UNL1       -0.0023
     11 C           3.2321   -2.4330    0.0000 C.3     1  UNL1        0.0048
     12 C           2.7321   -1.5670    0.0000 C.2     1  UNL1       -0.0263
     13 C           2.8660   -0.0670    0.0000 C.2     1  UNL1        0.0537
     14 C           6.4103   -0.2623    0.0000 C.2     1  UNL1        0.0492
     15 C           6.9939   -1.0670    0.0000 C.2     1  UNL1        0.3369
     16 C           6.7210    0.6883    0.0000 C.3     1  UNL1        0.0373
     17 C           2.8660    0.9330    0.0000 C.2     1  UNL1        0.3373
     18 C           2.2321   -2.4330    0.0000 C.2     1  UNL1       -0.0049
     19 C           2.0000   -0.5670    0.0000 C.2     1  UNL1        0.0020
     20 C           2.0000    2.4330    0.0000 C.3     1  UNL1        0.2559
@<TRIPOS>BOND
     1     1     8    1
     2     1    15    1
     3     2    15    2
     4     3    17    1
     5     3    20    1
     6     4    17    2
     7     5     6    1
     8     5     7    1
     9     5    11    1
    10     5    12    1
    11     6     9    1
    12     6    13    1
    13     7     8    1
    14     8    10    1
    15     9    10    1
    16    10    14    2
    17    12    18    2
    18    13    17    1
    19    13    19    2
    20    14    15    1
    21    14    16    1
