@<TRIPOS>MOLECULE
IMPHY010711
 40 46 0 0 0
SMALL
GASTEIGER

@<TRIPOS>ATOM
      1 O           9.0574   -3.7519    0.0000 O.3     1  UNL1       -0.3354
      2 C          10.1968   -3.1074    0.0000 C.3     1  UNL1        0.2957
      3 C          10.1968   -1.7954    0.0000 C.3     1  UNL1        0.1694
      4 O          10.1968   -0.4834    0.0000 O.3     1  UNL1       -0.3534
      5 C           9.0574   -1.1394    0.0000 C.3     1  UNL1        0.1222
      6 C           7.9410   -1.7954    0.0000 C.3     1  UNL1        0.0530
      7 C           7.9410   -3.1074    0.0000 C.3     1  UNL1        0.0791
      8 O          11.3476   -3.7519    0.0000 O.3     1  UNL1       -0.1872
      9 C          11.5088   -1.7954    0.0000 C.3     1  UNL1        0.0374
     10 C           8.4129    0.0000    0.0000 C.3     1  UNL1        0.0323
     11 C           6.8017   -3.7519    0.0000 C.3     1  UNL1        0.0182
     12 C           6.8017   -5.0523    0.0000 C.3     1  UNL1       -0.0113
     13 C           7.9410   -5.7199    0.0000 C.3     1  UNL1       -0.0038
     14 C           7.9410   -7.0319    0.0000 C.3     1  UNL1       -0.0041
     15 C           5.6738   -7.0319    0.0000 C.3     1  UNL1       -0.0146
     16 C           4.5460   -7.6879    0.0000 C.3     1  UNL1        0.0030
     17 C           3.3951   -7.0319    0.0000 C.3     1  UNL1       -0.0047
     18 C           2.2787   -7.6879    0.0000 C.3     1  UNL1        0.0807
     19 C           2.2787   -8.9883    0.0000 C.3     1  UNL1        0.1636
     20 C           3.3951   -9.6328    0.0000 C.3     1  UNL1        0.1702
     21 O           4.5460  -10.3003    0.0000 O.3     1  UNL1       -0.3515
     22 C           4.5460   -8.9883    0.0000 C.3     1  UNL1        0.1405
     23 C           5.6738   -5.7199    0.0000 C.3     1  UNL1        0.0446
     24 C           4.5460   -5.0523    0.0000 C.2     1  UNL1        0.1490
     25 C           3.3951   -5.7199    0.0000 C.3     1  UNL1        0.0608
     26 C           1.1394   -7.0319    0.0000 C.2     1  UNL1        0.1741
     27 C           0.0000   -7.6879    0.0000 C.2     1  UNL1        0.0330
     28 C           0.0000   -8.9883    0.0000 C.2     1  UNL1       -0.0206
     29 C           1.1394   -9.6328    0.0000 C.3     1  UNL1        0.0594
     30 C           5.6738   -3.0843    0.0000 C.3     1  UNL1        0.0018
     31 C           2.2787   -6.3759    0.0000 C.3     1  UNL1        0.0100
     32 O           2.2787  -10.3003    0.0000 O.3     1  UNL1       -0.2223
     33 C           5.6738   -4.3963    0.0000 C.3     1  UNL1        0.0067
     34 O           4.5460   -3.8669    0.0000 O.2     1  UNL1       -0.2961
     35 O           1.1394   -5.7199    0.0000 O.2     1  UNL1       -0.2913
     36 H           6.8017   -6.3759    0.0000 H       1  UNL1        0.0323
     37 H           3.3951   -8.3554    0.0000 H       1  UNL1        0.0325
     38 H           4.5460   -6.3643    0.0000 H       1  UNL1        0.0337
     39 H           5.6738   -8.3554    0.0000 H       1  UNL1        0.0320
     40 H           7.9410   -4.4309    0.0000 H       1  UNL1        0.0610
@<TRIPOS>BOND
     1     1     7    1
     2     1     2    1
     3     2     3    1
     4     2     8    1
     5     3     5    1
     6     3     9    1
     7     3     4    1
     8     5     4    1
     9     5     6    1
    10     5    10    1
    11     6     7    1
    12     7    11    1
    13     7    40    1
    14    11    12    1
    15    11    30    1
    16    12    23    1
    17    12    13    1
    18    12    36    1
    19    13    14    1
    20    14    15    1
    21    15    16    1
    22    15    23    1
    23    15    39    1
    24    16    17    1
    25    16    22    1
    26    16    38    1
    27    17    18    1
    28    17    25    1
    29    17    37    1
    30    18    19    1
    31    18    26    1
    32    18    31    1
    33    19    29    1
    34    19    20    1
    35    19    32    1
    36    20    22    1
    37    20    21    1
    38    22    21    1
    39    23    24    1
    40    23    33    1
    41    24    25    1
    42    24    34    2
    43    26    27    1
    44    26    35    2
    45    27    28    2
    46    28    29    1
