@<TRIPOS>MOLECULE
IMPHY003427
 46 48 0 0 0
SMALL
GASTEIGER

@<TRIPOS>ATOM
      1 O           8.0901   -1.8017    0.0000 O.3     1  UNL1       -0.4900
      2 O           8.0785    1.2675    0.0000 O.2     1  UNL1       -0.2910
      3 O           6.3301    1.2329    0.0000 O.3     1  UNL1       -0.5055
      4 O           4.5981   -1.7671    0.0000 O.3     1  UNL1       -0.5062
      5 O          10.7321   -1.2396    0.0000 O.3     1  UNL1       -0.5064
      6 O          12.4525    1.7671    0.0000 O.3     1  UNL1       -0.5066
      7 C           8.9962   -0.2463    0.0000 C.3     1  UNL1        0.0847
      8 C           8.9962   -1.2879    0.0000 C.3     1  UNL1        0.1036
      9 C           7.1962   -0.2671    0.0000 C.ar    1  UNL1        0.1015
     10 C           8.0901    0.2676    0.0000 C.2     1  UNL1        0.1809
     11 C           9.8602    0.2571    0.0000 C.ar    1  UNL1        0.0081
     12 C           7.1962   -1.2671    0.0000 C.ar    1  UNL1        0.1380
     13 C           6.3301    0.2329    0.0000 C.ar    1  UNL1        0.1378
     14 C           5.4641   -0.2671    0.0000 C.ar    1  UNL1        0.0400
     15 C           6.3301   -1.7671    0.0000 C.ar    1  UNL1        0.0228
     16 C           5.4641   -1.2671    0.0000 C.ar    1  UNL1        0.1273
     17 C           4.5981    0.2329    0.0000 C.3     1  UNL1       -0.0023
     18 C          10.7282   -0.2396    0.0000 C.ar    1  UNL1        0.1243
     19 C           9.8564    1.2571    0.0000 C.ar    1  UNL1       -0.0509
     20 C          11.5923    0.2638    0.0000 C.ar    1  UNL1        0.0216
     21 C          10.7205    1.7604    0.0000 C.ar    1  UNL1       -0.0197
     22 C           3.7320   -0.2671    0.0000 C.2     1  UNL1       -0.0807
     23 C          11.5884    1.2637    0.0000 C.ar    1  UNL1        0.1203
     24 C           2.8660    0.2329    0.0000 C.2     1  UNL1       -0.0793
     25 C           2.0000   -0.2671    0.0000 C.3     1  UNL1       -0.0440
     26 C           2.8660    1.2329    0.0000 C.3     1  UNL1       -0.0440
     27 H           8.9913    0.6037    0.0000 H       1  UNL1        0.0464
     28 H           9.2052   -1.8716    0.0000 H       1  UNL1        0.0707
     29 H           9.6070   -1.1818    0.0000 H       1  UNL1        0.0707
     30 H           6.3301   -2.3871    0.0000 H       1  UNL1        0.0691
     31 H           4.9966    0.7079    0.0000 H       1  UNL1        0.0358
     32 H           4.1996    0.7079    0.0000 H       1  UNL1        0.0358
     33 H           9.3183    1.5650    0.0000 H       1  UNL1        0.0623
     34 H          12.1304   -0.0442    0.0000 H       1  UNL1        0.0691
     35 H          10.7181    2.3804    0.0000 H       1  UNL1        0.0654
     36 H           3.7320   -0.8871    0.0000 H       1  UNL1        0.0575
     37 H           5.7932    1.5429    0.0000 H       1  UNL1        0.2922
     38 H           4.5981   -2.3871    0.0000 H       1  UNL1        0.2921
     39 H          11.2702   -1.5475    0.0000 H       1  UNL1        0.2921
     40 H           3.4860    1.2329    0.0000 H       1  UNL1        0.0274
     41 H           2.8660    1.8529    0.0000 H       1  UNL1        0.0274
     42 H           2.2460    1.2329    0.0000 H       1  UNL1        0.0274
     43 H           1.6900    0.2699    0.0000 H       1  UNL1        0.0274
     44 H           1.4631   -0.5771    0.0000 H       1  UNL1        0.0274
     45 H           2.3100   -0.8040    0.0000 H       1  UNL1        0.0274
     46 H          12.4501    2.3871    0.0000 H       1  UNL1        0.2921
@<TRIPOS>BOND
     1     1     8    1
     2     1    12    1
     3     2    10    2
     4     3    13    1
     5     3    37    1
     6     4    16    1
     7     4    38    1
     8     5    18    1
     9     5    39    1
    10     6    23    1
    11     6    46    1
    12     7     8    1
    13     7    10    1
    14     7    11    1
    15     7    27    1
    16     8    28    1
    17     8    29    1
    18     9    10    1
    19     9    12   ar
    20     9    13   ar
    21    11    18   ar
    22    11    19   ar
    23    12    15   ar
    24    13    14   ar
    25    14    16   ar
    26    14    17    1
    27    15    16   ar
    28    15    30    1
    29    17    22    1
    30    17    31    1
    31    17    32    1
    32    18    20   ar
    33    19    21   ar
    34    19    33    1
    35    20    23   ar
    36    20    34    1
    37    21    23   ar
    38    21    35    1
    39    22    24    2
    40    22    36    1
    41    24    25    1
    42    24    26    1
    43    25    43    1
    44    25    44    1
    45    25    45    1
    46    26    40    1
    47    26    41    1
    48    26    42    1
