@<TRIPOS>MOLECULE
IMPHY007290
 86 89 0 0 0
SMALL
GASTEIGER

@<TRIPOS>ATOM
      1 O           3.7320   -3.1598    0.0000 O.3     1  UNL1       -0.4613
      2 O           2.8718   -1.6564    0.0000 O.2     1  UNL1       -0.2512
      3 C           9.1251   -0.1074    0.0000 C.3     1  UNL1       -0.0196
      4 C           9.1251   -1.1074    0.0000 C.3     1  UNL1       -0.0051
      5 C          10.0713    0.1973    0.0000 C.3     1  UNL1       -0.0322
      6 C           8.2591   -1.6074    0.0000 C.2     1  UNL1       -0.0633
      7 C           6.4831   -1.6143    0.0000 C.3     1  UNL1       -0.0075
      8 C          10.0713   -1.4122    0.0000 C.3     1  UNL1       -0.0431
      9 C           7.3931   -1.1074    0.0000 C.2     1  UNL1       -0.0636
     10 C           8.2591    0.3926    0.0000 C.3     1  UNL1       -0.0429
     11 C          10.6550   -0.6074    0.0000 C.3     1  UNL1       -0.0486
     12 C           6.4750   -2.6559    0.0000 C.3     1  UNL1       -0.0257
     13 C           7.3931   -0.1074    0.0000 C.3     1  UNL1       -0.0304
     14 C           8.2752   -2.6489    0.0000 C.3     1  UNL1       -0.0306
     15 C          10.3820    1.1478    0.0000 C.3     1  UNL1       -0.0402
     16 C           7.3771   -3.1767    0.0000 C.3     1  UNL1       -0.0453
     17 C           9.1251    0.8926    0.0000 C.3     1  UNL1       -0.0585
     18 C           9.1251   -2.1074    0.0000 C.3     1  UNL1       -0.0553
     19 C           5.5396   -3.2056    0.0000 C.3     1  UNL1       -0.0030
     20 C           5.5562   -1.0502    0.0000 C.3     1  UNL1       -0.0403
     21 C           4.6000   -2.6631    0.0000 C.3     1  UNL1        0.1059
     22 C           6.4908   -0.6143    0.0000 C.3     1  UNL1       -0.0556
     23 C           4.6084   -1.5782    0.0000 C.3     1  UNL1       -0.0146
     24 C          11.3605    1.3540    0.0000 C.3     1  UNL1       -0.0465
     25 C           9.7142    1.8921    0.0000 C.3     1  UNL1       -0.0621
     26 C           5.5435   -4.2056    0.0000 C.3     1  UNL1       -0.0588
     27 C          11.6712    2.3046    0.0000 C.3     1  UNL1       -0.0315
     28 C          12.6497    2.5108    0.0000 C.2     1  UNL1       -0.0740
     29 C           2.8680   -2.6564    0.0000 C.2     1  UNL1        0.3042
     30 C          12.9603    3.4613    0.0000 C.3     1  UNL1       -0.0258
     31 C          13.3175    1.7665    0.0000 C.2     1  UNL1       -0.0992
     32 C           2.0000   -3.1531    0.0000 C.3     1  UNL1        0.0332
     33 C          13.9388    3.6675    0.0000 C.3     1  UNL1       -0.0590
     34 C          12.2925    4.2056    0.0000 C.3     1  UNL1       -0.0590
     35 H          10.9110    0.3292    0.0000 H       1  UNL1        0.0309
     36 H           9.8203   -1.9791    0.0000 H       1  UNL1        0.0274
     37 H          10.6087   -1.7214    0.0000 H       1  UNL1        0.0274
     38 H           8.6576    0.8675    0.0000 H       1  UNL1        0.0274
     39 H           7.8606    0.8675    0.0000 H       1  UNL1        0.0274
     40 H          11.1158   -1.0222    0.0000 H       1  UNL1        0.0268
     41 H          11.1158   -0.1927    0.0000 H       1  UNL1        0.0268
     42 H           6.4774   -3.2759    0.0000 H       1  UNL1        0.0313
     43 H           7.1810    0.4752    0.0000 H       1  UNL1        0.0310
     44 H           6.7825   -0.2151    0.0000 H       1  UNL1        0.0310
     45 H           8.4932   -3.2293    0.0000 H       1  UNL1        0.0310
     46 H           8.8843   -2.5334    0.0000 H       1  UNL1        0.0310
     47 H          10.5746    1.7371    0.0000 H       1  UNL1        0.0301
     48 H           6.9798   -3.6527    0.0000 H       1  UNL1        0.0271
     49 H           7.7781   -3.6496    0.0000 H       1  UNL1        0.0271
     50 H           9.7451    0.8926    0.0000 H       1  UNL1        0.0235
     51 H           9.1251    1.5126    0.0000 H       1  UNL1        0.0235
     52 H           8.5051    0.8926    0.0000 H       1  UNL1        0.0235
     53 H           8.5051   -2.1074    0.0000 H       1  UNL1        0.0238
     54 H           9.1251   -2.7274    0.0000 H       1  UNL1        0.0238
     55 H           9.7451   -2.1074    0.0000 H       1  UNL1        0.0238
     56 H           5.0033   -3.5166    0.0000 H       1  UNL1        0.0337
     57 H           5.9644   -0.5835    0.0000 H       1  UNL1        0.0275
     58 H           5.1663   -0.5682    0.0000 H       1  UNL1        0.0275
     59 H           4.0648   -2.3500    0.0000 H       1  UNL1        0.0736
     60 H           7.1108   -0.6191    0.0000 H       1  UNL1        0.0238
     61 H           6.4956    0.0057    0.0000 H       1  UNL1        0.0238
     62 H           5.8708   -0.6095    0.0000 H       1  UNL1        0.0238
     63 H           4.4038   -0.9929    0.0000 H       1  UNL1        0.0301
     64 H           3.9967   -1.6795    0.0000 H       1  UNL1        0.0301
     65 H          11.3811    0.7344    0.0000 H       1  UNL1        0.0271
     66 H          11.9743    1.2667    0.0000 H       1  UNL1        0.0271
     67 H          10.1756    2.3062    0.0000 H       1  UNL1        0.0233
     68 H           9.3001    2.3536    0.0000 H       1  UNL1        0.0233
     69 H           9.2527    1.4781    0.0000 H       1  UNL1        0.0233
     70 H           4.9235   -4.2080    0.0000 H       1  UNL1        0.0234
     71 H           5.5459   -4.8256    0.0000 H       1  UNL1        0.0234
     72 H           6.1635   -4.2032    0.0000 H       1  UNL1        0.0234
     73 H          11.6506    2.9242    0.0000 H       1  UNL1        0.0310
     74 H          11.0574    2.3919    0.0000 H       1  UNL1        0.0310
     75 H          13.1530    4.0506    0.0000 H       1  UNL1        0.0340
     76 H          13.1249    1.1772    0.0000 H       1  UNL1        0.0534
     77 H          13.9242    1.8943    0.0000 H       1  UNL1        0.0534
     78 H           1.6921   -2.6150    0.0000 H       1  UNL1        0.0342
     79 H           1.4619   -3.4610    0.0000 H       1  UNL1        0.0342
     80 H           2.3079   -3.6912    0.0000 H       1  UNL1        0.0342
     81 H          14.0667    3.0608    0.0000 H       1  UNL1        0.0235
     82 H          14.5455    3.7954    0.0000 H       1  UNL1        0.0235
     83 H          13.8110    4.2742    0.0000 H       1  UNL1        0.0235
     84 H          12.7540    4.6197    0.0000 H       1  UNL1        0.0235
     85 H          11.8784    4.6671    0.0000 H       1  UNL1        0.0235
     86 H          11.8310    3.7915    0.0000 H       1  UNL1        0.0235
@<TRIPOS>BOND
     1    21     1    1
     2     1    29    1
     3     2    29    2
     4     3     4    1
     5     3     5    1
     6     3    10    1
     7     3    17    1
     8     4     6    1
     9     4     8    1
    10     4    18    1
    11     5    11    1
    12     5    15    1
    13     5    35    1
    14     6     9    2
    15     6    14    1
    16     7     9    1
    17     7    12    1
    18     7    20    1
    19     7    22    1
    20     8    11    1
    21     8    36    1
    22     8    37    1
    23     9    13    1
    24    10    13    1
    25    10    38    1
    26    10    39    1
    27    11    40    1
    28    11    41    1
    29    12    16    1
    30    12    19    1
    31    12    42    1
    32    13    43    1
    33    13    44    1
    34    14    16    1
    35    14    45    1
    36    14    46    1
    37    15    24    1
    38    15    25    1
    39    15    47    1
    40    16    48    1
    41    16    49    1
    42    17    50    1
    43    17    51    1
    44    17    52    1
    45    18    53    1
    46    18    54    1
    47    18    55    1
    48    19    21    1
    49    19    26    1
    50    19    56    1
    51    20    23    1
    52    20    57    1
    53    20    58    1
    54    21    23    1
    55    21    59    1
    56    22    60    1
    57    22    61    1
    58    22    62    1
    59    23    63    1
    60    23    64    1
    61    24    27    1
    62    24    65    1
    63    24    66    1
    64    25    67    1
    65    25    68    1
    66    25    69    1
    67    26    70    1
    68    26    71    1
    69    26    72    1
    70    27    28    1
    71    27    73    1
    72    27    74    1
    73    28    30    1
    74    28    31    2
    75    29    32    1
    76    30    33    1
    77    30    34    1
    78    30    75    1
    79    31    76    1
    80    31    77    1
    81    32    78    1
    82    32    79    1
    83    32    80    1
    84    33    81    1
    85    33    82    1
    86    33    83    1
    87    34    84    1
    88    34    85    1
    89    34    86    1
