@<TRIPOS>MOLECULE
IMPHY013518
 24 25 0 0 0
SMALL
GASTEIGER

@<TRIPOS>ATOM
      1 O           2.0000   -0.9746    0.0000 O.2     1  UNL1       -0.4696
      2 O           2.0000    2.0254    0.0000 O.3     1  UNL1       -0.4644
      3 O           5.9674   -2.4361    0.0000 O.3     1  UNL1       -0.4771
      4 O           3.7320    2.0254    0.0000 O.2     1  UNL1       -0.2448
      5 O           4.3211   -2.9742    0.0000 O.2     1  UNL1       -0.2451
      6 C           3.7320    0.0254    0.0000 C.ar    1  UNL1        0.0028
      7 C           3.7320   -0.9746    0.0000 C.ar    1  UNL1        0.0318
      8 C           4.6783   -1.2793    0.0000 C.ar    1  UNL1        0.0695
      9 C           2.8660    0.5254    0.0000 C.ar    1  UNL1        0.1014
     10 C           4.6783    0.3301    0.0000 C.ar    1  UNL1       -0.0522
     11 C           5.2619   -0.4746    0.0000 C.ar    1  UNL1       -0.0465
     12 C           2.8660   -1.4746    0.0000 C.ar    1  UNL1        0.1001
     13 C           2.0000    0.0254    0.0000 C.ar    1  UNL1        0.1062
     14 C           2.8660    1.5254    0.0000 C.2     1  UNL1        0.3425
     15 C           4.9889   -2.2299    0.0000 C.2     1  UNL1        0.3375
     16 C           2.0000    3.0254    0.0000 C.3     1  UNL1        0.0820
     17 H           4.8709    0.9195    0.0000 H       1  UNL1        0.0624
     18 H           5.8819   -0.4746    0.0000 H       1  UNL1        0.0626
     19 H           2.8660   -2.0946    0.0000 H       1  UNL1        0.1036
     20 H           1.4631    0.3354    0.0000 H       1  UNL1        0.1038
     21 H           2.6200    3.0254    0.0000 H       1  UNL1        0.0661
     22 H           2.0000    3.6454    0.0000 H       1  UNL1        0.0661
     23 H           1.3800    3.0254    0.0000 H       1  UNL1        0.0661
     24 H           6.1600   -3.0254    0.0000 H       1  UNL1        0.2954
@<TRIPOS>BOND
     1     1    12   ar
     2     1    13   ar
     3     2    14    1
     4     2    16    1
     5     3    15    1
     6     3    24    1
     7     4    14    2
     8     5    15    2
     9     6     7    1
    10     6     9   ar
    11     6    10   ar
    12     7     8   ar
    13     7    12   ar
    14     8    11   ar
    15     8    15    1
    16     9    13   ar
    17     9    14    1
    18    10    11   ar
    19    10    17    1
    20    11    18    1
    21    12    19    1
    22    13    20    1
    23    16    21    1
    24    16    22    1
    25    16    23    1
