@<TRIPOS>MOLECULE
IMPHY004775
 59 62 0 0 0
SMALL
GASTEIGER

@<TRIPOS>ATOM
      1 O           3.9061   -2.1007    0.0000 O.3     1  UNL1       -0.4814
      2 O           7.4260   -2.1007    0.0000 O.2     1  UNL1       -0.4618
      3 O           5.6660    0.9340    0.0000 O.3     1  UNL1       -0.5052
      4 O           7.4144    0.9686    0.0000 O.2     1  UNL1       -0.2863
      5 O           8.3244    1.4548    0.0000 O.3     1  UNL1       -0.4943
      6 O          10.0680   -1.5385    0.0000 O.3     1  UNL1       -0.5056
      7 O          11.7884    1.4681    0.0000 O.3     1  UNL1       -0.5062
      8 C           3.0000   -1.5868    0.0000 C.3     1  UNL1        0.1235
      9 C           4.8000   -0.5660    0.0000 C.ar    1  UNL1        0.0588
     10 C           4.8000   -1.5660    0.0000 C.ar    1  UNL1        0.1359
     11 C           3.0000   -0.5452    0.0000 C.2     1  UNL1       -0.0408
     12 C           6.5320   -0.5660    0.0000 C.ar    1  UNL1        0.1066
     13 C           5.6660   -0.0660    0.0000 C.ar    1  UNL1        0.1418
     14 C           3.9061   -0.0314    0.0000 C.2     1  UNL1       -0.0478
     15 C           6.5320   -1.5660    0.0000 C.ar    1  UNL1        0.1454
     16 C           2.0000   -1.5907    0.0000 C.3     1  UNL1       -0.0215
     17 C           2.5033   -2.4548    0.0000 C.3     1  UNL1       -0.0215
     18 C           5.6660   -2.0660    0.0000 C.ar    1  UNL1        0.0239
     19 C           8.3321   -0.5452    0.0000 C.ar    1  UNL1        0.0714
     20 C           7.4260   -0.0314    0.0000 C.ar    1  UNL1        0.2039
     21 C           9.1962   -0.0419    0.0000 C.ar    1  UNL1        0.0722
     22 C          10.0641   -0.5385    0.0000 C.ar    1  UNL1        0.1352
     23 C          10.9282   -0.0352    0.0000 C.ar    1  UNL1        0.0399
     24 C           8.3321   -1.5868    0.0000 C.ar    1  UNL1        0.1041
     25 C           9.1923    0.9581    0.0000 C.ar    1  UNL1        0.1350
     26 C          11.7961   -0.5318    0.0000 C.3     1  UNL1       -0.0023
     27 C          10.9243    0.9648    0.0000 C.ar    1  UNL1        0.1273
     28 C          10.0564    1.4615    0.0000 C.ar    1  UNL1        0.0227
     29 C          12.6602   -0.0285    0.0000 C.2     1  UNL1       -0.0807
     30 C          13.5282   -0.5252    0.0000 C.2     1  UNL1       -0.0793
     31 C           8.3205    2.4548    0.0000 C.3     1  UNL1        0.0788
     32 C          14.3923   -0.0218    0.0000 C.3     1  UNL1       -0.0440
     33 C          13.5320   -1.5252    0.0000 C.3     1  UNL1       -0.0440
     34 H           2.4643   -0.2331    0.0000 H       1  UNL1        0.0611
     35 H           3.9132    0.5886    0.0000 H       1  UNL1        0.0624
     36 H           1.9976   -0.9707    0.0000 H       1  UNL1        0.0271
     37 H           1.3800   -1.5931    0.0000 H       1  UNL1        0.0271
     38 H           2.0024   -2.2107    0.0000 H       1  UNL1        0.0271
     39 H           1.9652   -2.1468    0.0000 H       1  UNL1        0.0271
     40 H           2.1954   -2.9929    0.0000 H       1  UNL1        0.0271
     41 H           3.0415   -2.7627    0.0000 H       1  UNL1        0.0271
     42 H           5.6660   -2.6860    0.0000 H       1  UNL1        0.0691
     43 H           8.8678   -1.8989    0.0000 H       1  UNL1        0.1037
     44 H          11.3994   -1.0083    0.0000 H       1  UNL1        0.0358
     45 H          12.1965   -1.0053    0.0000 H       1  UNL1        0.0358
     46 H          10.0540    2.0815    0.0000 H       1  UNL1        0.0691
     47 H           5.1291    1.2440    0.0000 H       1  UNL1        0.2922
     48 H          12.6578    0.5915    0.0000 H       1  UNL1        0.0575
     49 H          10.6061   -1.8464    0.0000 H       1  UNL1        0.2922
     50 H          11.7860    2.0881    0.0000 H       1  UNL1        0.2921
     51 H           8.9405    2.4572    0.0000 H       1  UNL1        0.0660
     52 H           8.3181    3.0748    0.0000 H       1  UNL1        0.0660
     53 H           7.7005    2.4524    0.0000 H       1  UNL1        0.0660
     54 H          14.7043   -0.5576    0.0000 H       1  UNL1        0.0274
     55 H          12.9120   -1.5276    0.0000 H       1  UNL1        0.0274
     56 H          13.5344   -2.1452    0.0000 H       1  UNL1        0.0274
     57 H          14.1520   -1.5228    0.0000 H       1  UNL1        0.0274
     58 H          14.9280    0.2902    0.0000 H       1  UNL1        0.0274
     59 H          14.0802    0.5139    0.0000 H       1  UNL1        0.0274
@<TRIPOS>BOND
     1     1     8    1
     2     1    10    1
     3     2    15   ar
     4     2    24   ar
     5     3    13    1
     6     3    47    1
     7     4    20    2
     8     5    25    1
     9     5    31    1
    10     6    22    1
    11     6    49    1
    12     7    27    1
    13     7    50    1
    14     8    11    1
    15     8    16    1
    16     8    17    1
    17     9    10   ar
    18     9    13   ar
    19     9    14    1
    20    10    18   ar
    21    11    14    2
    22    11    34    1
    23    12    13   ar
    24    12    15   ar
    25    12    20   ar
    26    14    35    1
    27    15    18   ar
    28    16    36    1
    29    16    37    1
    30    16    38    1
    31    17    39    1
    32    17    40    1
    33    17    41    1
    34    18    42    1
    35    19    20   ar
    36    19    21    1
    37    19    24   ar
    38    21    22   ar
    39    21    25   ar
    40    22    23   ar
    41    23    26    1
    42    23    27   ar
    43    24    43    1
    44    25    28   ar
    45    26    29    1
    46    26    44    1
    47    26    45    1
    48    27    28   ar
    49    28    46    1
    50    29    30    2
    51    29    48    1
    52    30    32    1
    53    30    33    1
    54    31    51    1
    55    31    52    1
    56    31    53    1
    57    32    54    1
    58    32    58    1
    59    32    59    1
    60    33    55    1
    61    33    56    1
    62    33    57    1
