@<TRIPOS>MOLECULE
IMPHY015028
 84 89 0 0 0
SMALL
GASTEIGER

@<TRIPOS>ATOM
      1 O           7.7662    1.7624    0.0000 O.3     1  UNL1       -0.3877
      2 O           6.0010   -3.4411    0.0000 O.3     1  UNL1       -0.3454
      3 O           4.1621    5.2761    0.0000 O.3     1  UNL1       -0.4571
      4 O           4.2690   -3.4411    0.0000 O.3     1  UNL1       -0.3431
      5 O           4.7972    6.9411    0.0000 O.2     1  UNL1       -0.2456
      6 O           6.0010   -5.4411    0.0000 O.3     1  UNL1       -0.3841
      7 O           4.2690   -6.4411    0.0000 O.3     1  UNL1       -0.3744
      8 O           2.5369   -5.4411    0.0000 O.3     1  UNL1       -0.3866
      9 C           6.8982    2.2591    0.0000 C.3     1  UNL1        0.0751
     10 C           6.9021    1.2591    0.0000 C.3     1  UNL1       -0.0083
     11 C           6.0380    0.7558    0.0000 C.3     1  UNL1       -0.0299
     12 C           6.0303    2.7558    0.0000 C.3     1  UNL1        0.0036
     13 C           6.0260   -0.2858    0.0000 C.3     1  UNL1       -0.0259
     14 C           6.9260   -0.8101    0.0000 C.3     1  UNL1       -0.0330
     15 C           5.1701    1.2524    0.0000 C.3     1  UNL1       -0.0488
     16 C           5.1662    2.2524    0.0000 C.3     1  UNL1       -0.0442
     17 C           6.2358    3.7284    0.0000 C.3     1  UNL1       -0.0081
     18 C           7.8140    0.7558    0.0000 C.3     1  UNL1       -0.0470
     19 C           7.6327    2.9290    0.0000 C.3     1  UNL1       -0.0226
     20 C           7.8261   -0.2858    0.0000 C.3     1  UNL1       -0.0493
     21 C           7.2241    3.8352    0.0000 C.3     1  UNL1       -0.0432
     22 C           5.0761   -0.8101    0.0000 C.3     1  UNL1       -0.0448
     23 C           6.9386   -1.8950    0.0000 C.3     1  UNL1       -0.0232
     24 C           5.1624    3.2524    0.0000 C.3     1  UNL1       -0.0564
     25 C           5.1619    0.2175    0.0000 C.3     1  UNL1       -0.0590
     26 C           5.0635   -1.8950    0.0000 C.3     1  UNL1       -0.0260
     27 C           6.0010   -2.4411    0.0000 C.3     1  UNL1        0.0621
     28 C           5.5650    4.4701    0.0000 C.2     1  UNL1       -0.0222
     29 C           4.5708    4.3634    0.0000 C.3     1  UNL1        0.1147
     30 C           5.7709    5.4487    0.0000 C.2     1  UNL1        0.0252
     31 C           5.1350   -3.9411    0.0000 C.3     1  UNL1        0.1881
     32 C           4.9038    5.9468    0.0000 C.2     1  UNL1        0.3323
     33 C           5.1350   -4.9411    0.0000 C.3     1  UNL1        0.1344
     34 C           4.2690   -5.4411    0.0000 C.3     1  UNL1        0.1170
     35 C           3.4030   -3.9411    0.0000 C.3     1  UNL1        0.0873
     36 C           3.4030   -4.9411    0.0000 C.3     1  UNL1        0.1097
     37 C           2.5369   -3.4411    0.0000 C.3     1  UNL1       -0.0361
     38 C           3.4030   -6.9411    0.0000 C.3     1  UNL1        0.0370
     39 H           7.6333    1.6926    0.0000 H       1  UNL1        0.0331
     40 H           6.7725    0.3279    0.0000 H       1  UNL1        0.0310
     41 H           7.6654   -1.2294    0.0000 H       1  UNL1        0.0307
     42 H           4.5591    1.3577    0.0000 H       1  UNL1        0.0268
     43 H           4.9602    0.6690    0.0000 H       1  UNL1        0.0268
     44 H           4.9519    2.8342    0.0000 H       1  UNL1        0.0272
     45 H           4.5560    2.1424    0.0000 H       1  UNL1        0.0272
     46 H           6.4565    4.3078    0.0000 H       1  UNL1        0.0353
     47 H           8.4261    0.6567    0.0000 H       1  UNL1        0.0269
     48 H           8.0163    1.3418    0.0000 H       1  UNL1        0.0269
     49 H           8.0000    2.4296    0.0000 H       1  UNL1        0.0293
     50 H           8.1680    3.2418    0.0000 H       1  UNL1        0.0293
     51 H           8.0419   -0.8670    0.0000 H       1  UNL1        0.0268
     52 H           8.4357   -0.1727    0.0000 H       1  UNL1        0.0268
     53 H           7.8129    4.0293    0.0000 H       1  UNL1        0.0272
     54 H           7.0930    4.4412    0.0000 H       1  UNL1        0.0272
     55 H           4.8738   -0.2240    0.0000 H       1  UNL1        0.0271
     56 H           4.4640   -0.9091    0.0000 H       1  UNL1        0.0271
     57 H           7.1544   -2.4762    0.0000 H       1  UNL1        0.0293
     58 H           7.5482   -1.7819    0.0000 H       1  UNL1        0.0293
     59 H           5.4703    3.7905    0.0000 H       1  UNL1        0.0236
     60 H           4.6242    3.5603    0.0000 H       1  UNL1        0.0236
     61 H           4.8544    2.7143    0.0000 H       1  UNL1        0.0236
     62 H           5.4739    0.7533    0.0000 H       1  UNL1        0.0235
     63 H           4.6261    0.5296    0.0000 H       1  UNL1        0.0235
     64 H           4.8498   -0.3182    0.0000 H       1  UNL1        0.0235
     65 H           4.4539   -1.7819    0.0000 H       1  UNL1        0.0290
     66 H           4.8477   -2.4762    0.0000 H       1  UNL1        0.0290
     67 H           6.5386   -2.7501    0.0000 H       1  UNL1        0.0597
     68 H           8.3019    2.0745    0.0000 H       1  UNL1        0.2102
     69 H           3.9815    4.1706    0.0000 H       1  UNL1        0.0746
     70 H           4.7009    3.7573    0.0000 H       1  UNL1        0.0746
     71 H           6.3367    5.7020    0.0000 H       1  UNL1        0.0689
     72 H           5.1350   -3.3211    0.0000 H       1  UNL1        0.0937
     73 H           5.1350   -5.5611    0.0000 H       1  UNL1        0.0671
     74 H           3.7320   -5.7511    0.0000 H       1  UNL1        0.0650
     75 H           3.4030   -3.3211    0.0000 H       1  UNL1        0.0621
     76 H           3.4030   -5.5611    0.0000 H       1  UNL1        0.0646
     77 H           6.0010   -6.0611    0.0000 H       1  UNL1        0.2101
     78 H           2.8469   -2.9042    0.0000 H       1  UNL1        0.0255
     79 H           2.0000   -3.1311    0.0000 H       1  UNL1        0.0255
     80 H           2.2269   -3.9781    0.0000 H       1  UNL1        0.0255
     81 H           2.0000   -5.1311    0.0000 H       1  UNL1        0.2100
     82 H           3.0930   -6.4042    0.0000 H       1  UNL1        0.0524
     83 H           2.8660   -7.2511    0.0000 H       1  UNL1        0.0524
     84 H           3.7130   -7.4781    0.0000 H       1  UNL1        0.0524
@<TRIPOS>BOND
     1     9     1    1
     2     1    68    1
     3    27     2    1
     4    31     2    1
     5     3    29    1
     6     3    32    1
     7     4    31    1
     8     4    35    1
     9     5    32    2
    10    33     6    1
    11     6    77    1
    12    34     7    1
    13     7    38    1
    14    36     8    1
    15     8    81    1
    16     9    10    1
    17     9    12    1
    18     9    19    1
    19    10    11    1
    20    10    18    1
    21    10    39    1
    22    11    13    1
    23    11    15    1
    24    11    40    1
    25    12    16    1
    26    12    17    1
    27    12    24    1
    28    13    14    1
    29    13    22    1
    30    13    25    1
    31    14    20    1
    32    14    23    1
    33    14    41    1
    34    15    16    1
    35    15    42    1
    36    15    43    1
    37    16    44    1
    38    16    45    1
    39    17    21    1
    40    17    28    1
    41    17    46    1
    42    18    20    1
    43    18    47    1
    44    18    48    1
    45    19    21    1
    46    19    49    1
    47    19    50    1
    48    20    51    1
    49    20    52    1
    50    21    53    1
    51    21    54    1
    52    22    26    1
    53    22    55    1
    54    22    56    1
    55    23    27    1
    56    23    57    1
    57    23    58    1
    58    24    59    1
    59    24    60    1
    60    24    61    1
    61    25    62    1
    62    25    63    1
    63    25    64    1
    64    26    27    1
    65    26    65    1
    66    26    66    1
    67    27    67    1
    68    28    29    1
    69    28    30    2
    70    29    69    1
    71    29    70    1
    72    30    32    1
    73    30    71    1
    74    31    33    1
    75    31    72    1
    76    33    34    1
    77    33    73    1
    78    34    36    1
    79    34    74    1
    80    35    36    1
    81    35    37    1
    82    35    75    1
    83    36    76    1
    84    37    78    1
    85    37    79    1
    86    37    80    1
    87    38    82    1
    88    38    83    1
    89    38    84    1
