@<TRIPOS>MOLECULE
IMPHY000640
 39 42 0 0 0
SMALL
GASTEIGER

@<TRIPOS>ATOM
      1 O           3.0332   -0.7732    0.0000 O.3     1  UNL1       -0.3757
      2 O           2.8622    1.3938    0.0000 O.3     1  UNL1       -0.4600
      3 O           2.0000   -0.1587    0.0000 O.2     1  UNL1       -0.2505
      4 N           6.4088    0.3688    0.0000 N.3     1  UNL1       -0.2852
      5 C           5.5393   -0.1332    0.0000 C.3     1  UNL1        0.0720
      6 C           4.6697    0.3688    0.0000 C.2     1  UNL1       -0.0320
      7 C           4.5196   -0.3364    0.0000 C.3     1  UNL1        0.0036
      8 C           5.7493   -1.1091    0.0000 C.2     1  UNL1       -0.0259
      9 C           6.4088    1.3729    0.0000 C.3     1  UNL1        0.0041
     10 C           7.1489   -0.3010    0.0000 C.3     1  UNL1        0.0188
     11 C           4.6697    1.3729    0.0000 C.2     1  UNL1       -0.0296
     12 C           5.5393    1.8750    0.0000 C.3     1  UNL1       -0.0154
     13 C           4.0000   -1.0285    0.0000 C.3     1  UNL1        0.0790
     14 C           6.7421   -1.2126    0.0000 C.2     1  UNL1       -0.0648
     15 C           3.7720   -0.1681    0.0000 C.3     1  UNL1        0.0684
     16 C           5.2430   -1.7517    0.0000 C.2     1  UNL1       -0.0583
     17 C           4.1130   -1.9098    0.0000 C.2     1  UNL1       -0.0553
     18 C           3.7720    1.9098    0.0000 C.3     1  UNL1        0.1140
     19 C           2.8622    0.3479    0.0000 C.2     1  UNL1        0.3115
     20 C           2.3286   -1.4828    0.0000 C.3     1  UNL1        0.0372
     21 H           4.5713    0.2815    0.0000 H       1  UNL1        0.0318
     22 H           3.9401   -0.1158    0.0000 H       1  UNL1        0.0318
     23 H           7.0194    1.2653    0.0000 H       1  UNL1        0.0430
     24 H           6.6209    1.9555    0.0000 H       1  UNL1        0.0430
     25 H           7.6854   -0.6118    0.0000 H       1  UNL1        0.0470
     26 H           7.5143    0.1998    0.0000 H       1  UNL1        0.0470
     27 H           5.9378    2.3499    0.0000 H       1  UNL1        0.0324
     28 H           5.1407    2.3499    0.0000 H       1  UNL1        0.0324
     29 H           4.3799   -0.4429    0.0000 H       1  UNL1        0.0641
     30 H           7.0521   -1.7495    0.0000 H       1  UNL1        0.0588
     31 H           3.3784   -0.6471    0.0000 H       1  UNL1        0.0424
     32 H           4.1766   -0.6379    0.0000 H       1  UNL1        0.0424
     33 H           5.5517   -2.2894    0.0000 H       1  UNL1        0.0619
     34 H           3.7368   -2.4026    0.0000 H       1  UNL1        0.0598
     35 H           4.1766    2.3796    0.0000 H       1  UNL1        0.0745
     36 H           3.3784    2.3889    0.0000 H       1  UNL1        0.0745
     37 H           1.8886   -1.0460    0.0000 H       1  UNL1        0.0524
     38 H           1.8918   -1.9228    0.0000 H       1  UNL1        0.0524
     39 H           2.7686   -1.9196    0.0000 H       1  UNL1        0.0524
@<TRIPOS>BOND
     1    13     1    1
     2     1    20    1
     3     2    18    1
     4     2    19    1
     5     3    19    2
     6     4     5    1
     7     4     9    1
     8     4    10    1
     9     5     6    1
    10     5     7    1
    11     5     8    1
    12     6    11    2
    13     6    15    1
    14     7    13    1
    15     7    21    1
    16     7    22    1
    17     8    14    2
    18     8    16    1
    19     9    12    1
    20     9    23    1
    21     9    24    1
    22    10    14    1
    23    10    25    1
    24    10    26    1
    25    11    12    1
    26    11    18    1
    27    12    27    1
    28    12    28    1
    29    13    17    1
    30    13    29    1
    31    14    30    1
    32    15    19    1
    33    15    31    1
    34    15    32    1
    35    16    17    2
    36    16    33    1
    37    17    34    1
    38    18    35    1
    39    18    36    1
    40    20    37    1
    41    20    38    1
    42    20    39    1
