@<TRIPOS>MOLECULE
IMPHY010575
 41 42 0 0 0
SMALL
GASTEIGER

@<TRIPOS>ATOM
      1 O           2.5369    1.2327    0.0000 O.3     1  UNL1       -0.3888
      2 O           8.6651    0.7569    0.0000 O.2     1  UNL1       -0.2924
      3 C           6.0010   -0.7673    0.0000 C.3     1  UNL1       -0.0100
      4 C           4.2690    0.2327    0.0000 C.3     1  UNL1       -0.0089
      5 C           5.1350   -1.2673    0.0000 C.3     1  UNL1       -0.0435
      6 C           6.0010    0.2327    0.0000 C.2     1  UNL1       -0.0571
      7 C           4.2690   -0.7673    0.0000 C.3     1  UNL1       -0.0465
      8 C           5.1350    0.7327    0.0000 C.3     1  UNL1       -0.0252
      9 C           6.8950   -1.3020    0.0000 C.3     1  UNL1       -0.0369
     10 C           3.4030    0.7327    0.0000 C.3     1  UNL1        0.0636
     11 C           6.0010   -1.7673    0.0000 C.3     1  UNL1       -0.0558
     12 C           6.8950    0.7674    0.0000 C.2     1  UNL1       -0.0083
     13 C           7.8010   -0.7881    0.0000 C.3     1  UNL1        0.0109
     14 C           7.8010    0.2535    0.0000 C.2     1  UNL1        0.1590
     15 C           2.9030   -0.1333    0.0000 C.3     1  UNL1       -0.0361
     16 C           3.9030    1.5987    0.0000 C.3     1  UNL1       -0.0361
     17 C           6.8834    1.7673    0.0000 C.3     1  UNL1       -0.0364
     18 H           3.5329   -0.1923    0.0000 H       1  UNL1        0.0331
     19 H           4.7365   -1.7422    0.0000 H       1  UNL1        0.0274
     20 H           5.5335   -1.7422    0.0000 H       1  UNL1        0.0274
     21 H           3.6584   -0.6596    0.0000 H       1  UNL1        0.0269
     22 H           4.0569   -1.3499    0.0000 H       1  UNL1        0.0269
     23 H           5.5335    1.2076    0.0000 H       1  UNL1        0.0314
     24 H           4.7365    1.2076    0.0000 H       1  UNL1        0.0314
     25 H           6.4904   -1.7718    0.0000 H       1  UNL1        0.0278
     26 H           7.2886   -1.7810    0.0000 H       1  UNL1        0.0278
     27 H           5.3810   -1.7673    0.0000 H       1  UNL1        0.0238
     28 H           6.0010   -2.3873    0.0000 H       1  UNL1        0.0238
     29 H           6.6210   -1.7673    0.0000 H       1  UNL1        0.0238
     30 H           8.0101   -1.3718    0.0000 H       1  UNL1        0.0345
     31 H           8.4119   -0.6820    0.0000 H       1  UNL1        0.0345
     32 H           2.3660    0.1767    0.0000 H       1  UNL1        0.0257
     33 H           2.5930   -0.6703    0.0000 H       1  UNL1        0.0257
     34 H           3.4399   -0.4433    0.0000 H       1  UNL1        0.0257
     35 H           4.4399    1.2887    0.0000 H       1  UNL1        0.0257
     36 H           4.2130    2.1357    0.0000 H       1  UNL1        0.0257
     37 H           3.3660    1.9087    0.0000 H       1  UNL1        0.0257
     38 H           7.5034    1.7745    0.0000 H       1  UNL1        0.0279
     39 H           6.8762    2.3873    0.0000 H       1  UNL1        0.0279
     40 H           6.2635    1.7601    0.0000 H       1  UNL1        0.0279
     41 H           2.0000    0.9227    0.0000 H       1  UNL1        0.2101
@<TRIPOS>BOND
     1     1    10    1
     2     1    41    1
     3     2    14    2
     4     3     5    1
     5     3     6    1
     6     3     9    1
     7     3    11    1
     8     4     7    1
     9     4     8    1
    10     4    10    1
    11     4    18    1
    12     5     7    1
    13     5    19    1
    14     5    20    1
    15     6     8    1
    16     6    12    2
    17     7    21    1
    18     7    22    1
    19     8    23    1
    20     8    24    1
    21     9    13    1
    22     9    25    1
    23     9    26    1
    24    10    15    1
    25    10    16    1
    26    11    27    1
    27    11    28    1
    28    11    29    1
    29    12    14    1
    30    12    17    1
    31    13    14    1
    32    13    30    1
    33    13    31    1
    34    15    32    1
    35    15    33    1
    36    15    34    1
    37    16    35    1
    38    16    36    1
    39    16    37    1
    40    17    38    1
    41    17    39    1
    42    17    40    1
