@<TRIPOS>MOLECULE
IMPHY007470
 31 32 0 0 0
SMALL
GASTEIGER

@<TRIPOS>ATOM
      1 O           6.3301   -2.0000    0.0000 O.2     1  UNL1       -0.2870
      2 O           6.3301    2.0000    0.0000 O.2     1  UNL1       -0.2872
      3 C           5.4641   -0.5000    0.0000 C.2     1  UNL1        0.0072
      4 C           4.5981   -1.0000    0.0000 C.3     1  UNL1       -0.0055
      5 C           7.1962   -0.5000    0.0000 C.ar    1  UNL1        0.0327
      6 C           7.1962    0.5000    0.0000 C.ar    1  UNL1        0.0325
      7 C           6.3301   -1.0000    0.0000 C.2     1  UNL1        0.1903
      8 C           5.4641    0.5000    0.0000 C.2     1  UNL1       -0.0072
      9 C           6.3301    1.0000    0.0000 C.2     1  UNL1        0.1871
     10 C           3.7320   -0.5000    0.0000 C.2     1  UNL1       -0.0809
     11 C           8.0901   -1.0347    0.0000 C.ar    1  UNL1       -0.0502
     12 C           8.0901    1.0347    0.0000 C.ar    1  UNL1       -0.0503
     13 C           2.8660   -1.0000    0.0000 C.2     1  UNL1       -0.0793
     14 C           8.9962   -0.5208    0.0000 C.ar    1  UNL1       -0.0610
     15 C           8.9962    0.5208    0.0000 C.ar    1  UNL1       -0.0610
     16 C           2.0000   -0.5000    0.0000 C.3     1  UNL1       -0.0440
     17 C           2.8660   -2.0000    0.0000 C.3     1  UNL1       -0.0440
     18 H           4.1996   -1.4750    0.0000 H       1  UNL1        0.0357
     19 H           4.9966   -1.4750    0.0000 H       1  UNL1        0.0357
     20 H           4.9272    0.8100    0.0000 H       1  UNL1        0.0660
     21 H           3.7320    0.1200    0.0000 H       1  UNL1        0.0575
     22 H           8.0829   -1.6546    0.0000 H       1  UNL1        0.0625
     23 H           8.0829    1.6546    0.0000 H       1  UNL1        0.0625
     24 H           9.5319   -0.8329    0.0000 H       1  UNL1        0.0618
     25 H           9.5319    0.8329    0.0000 H       1  UNL1        0.0618
     26 H           2.2460   -2.0000    0.0000 H       1  UNL1        0.0274
     27 H           2.8660   -2.6200    0.0000 H       1  UNL1        0.0274
     28 H           3.4860   -2.0000    0.0000 H       1  UNL1        0.0274
     29 H           2.3100    0.0369    0.0000 H       1  UNL1        0.0274
     30 H           1.4631   -0.1900    0.0000 H       1  UNL1        0.0274
     31 H           1.6900   -1.0369    0.0000 H       1  UNL1        0.0274
@<TRIPOS>BOND
     1     1     7    2
     2     2     9    2
     3     3     4    1
     4     3     7    1
     5     3     8    2
     6     4    10    1
     7     4    18    1
     8     4    19    1
     9     5     6   ar
    10     5     7    1
    11     5    11   ar
    12     6     9    1
    13     6    12   ar
    14     8     9    1
    15     8    20    1
    16    10    13    2
    17    10    21    1
    18    11    14   ar
    19    11    22    1
    20    12    15   ar
    21    12    23    1
    22    13    16    1
    23    13    17    1
    24    14    15   ar
    25    14    24    1
    26    15    25    1
    27    16    29    1
    28    16    30    1
    29    16    31    1
    30    17    26    1
    31    17    27    1
    32    17    28    1
