@<TRIPOS>MOLECULE
IMPHY013464
 82 86 0 0 0
SMALL
GASTEIGER

@<TRIPOS>ATOM
      1 O           2.5357   -2.5933    0.0000 O.3     1  UNL1       -0.3887
      2 O           2.5519   -0.5017    0.0000 O.3     1  UNL1       -0.3892
      3 O          11.4608    0.4932    0.0000 O.3     1  UNL1       -0.4802
      4 O          10.6064   -1.0134    0.0000 O.2     1  UNL1       -0.2504
      5 C           6.1968   -0.5410    0.0000 C.3     1  UNL1       -0.0261
      6 C           5.2868   -1.0478    0.0000 C.3     1  UNL1       -0.0226
      7 C           7.0628   -1.0410    0.0000 C.3     1  UNL1       -0.0072
      8 C           5.2787   -2.0894    0.0000 C.3     1  UNL1       -0.0277
      9 C           7.9288    0.4590    0.0000 C.3     1  UNL1       -0.0067
     10 C           7.9288   -0.5410    0.0000 C.2     1  UNL1       -0.0611
     11 C           8.8228    0.9937    0.0000 C.3     1  UNL1       -0.0154
     12 C           6.1968    0.4590    0.0000 C.3     1  UNL1       -0.0481
     13 C           7.0789   -2.0825    0.0000 C.3     1  UNL1       -0.0433
     14 C           4.3433   -2.6391    0.0000 C.3     1  UNL1       -0.0032
     15 C           6.1808   -2.6102    0.0000 C.3     1  UNL1       -0.0483
     16 C           7.0628    0.9590    0.0000 C.3     1  UNL1       -0.0433
     17 C           4.3599   -0.4837    0.0000 C.3     1  UNL1       -0.0184
     18 C           9.7288    0.4799    0.0000 C.3     1  UNL1        0.0746
     19 C           3.4037   -2.0966    0.0000 C.3     1  UNL1        0.0864
     20 C           8.7977    2.0784    0.0000 C.3     1  UNL1       -0.0432
     21 C           3.4120   -1.0117    0.0000 C.3     1  UNL1        0.0821
     22 C           5.2945   -0.0478    0.0000 C.3     1  UNL1       -0.0589
     23 C           7.9288   -1.5410    0.0000 C.3     1  UNL1       -0.0556
     24 C           9.7288   -0.5618    0.0000 C.3     1  UNL1       -0.0184
     25 C           8.8228   -1.0756    0.0000 C.2     1  UNL1       -0.0827
     26 C           7.9288    1.4590    0.0000 C.3     1  UNL1       -0.0555
     27 C           9.7288    2.6353    0.0000 C.3     1  UNL1       -0.0345
     28 C          10.6726    1.0151    0.0000 C.3     1  UNL1       -0.0362
     29 C          10.6726    2.1001    0.0000 C.3     1  UNL1       -0.0468
     30 C           3.8467   -3.5071    0.0000 C.3     1  UNL1       -0.0571
     31 C           4.8466   -3.5032    0.0000 C.3     1  UNL1       -0.0571
     32 C          10.5987   -0.0135    0.0000 C.2     1  UNL1        0.3115
     33 C          10.2188    3.5071    0.0000 C.3     1  UNL1       -0.0598
     34 C           9.2188    3.4955    0.0000 C.3     1  UNL1       -0.0598
     35 H           6.9329   -0.1160    0.0000 H       1  UNL1        0.0314
     36 H           5.2820   -2.9394    0.0000 H       1  UNL1        0.0312
     37 H           9.5522    1.4300    0.0000 H       1  UNL1        0.0320
     38 H           5.9847    1.0416    0.0000 H       1  UNL1        0.0269
     39 H           5.5862    0.3514    0.0000 H       1  UNL1        0.0269
     40 H           7.2969   -2.6629    0.0000 H       1  UNL1        0.0274
     41 H           7.6880   -1.9670    0.0000 H       1  UNL1        0.0274
     42 H           5.7835   -3.0862    0.0000 H       1  UNL1        0.0269
     43 H           6.5818   -3.0831    0.0000 H       1  UNL1        0.0269
     44 H           7.4613    1.4340    0.0000 H       1  UNL1        0.0274
     45 H           6.6643    1.4340    0.0000 H       1  UNL1        0.0274
     46 H           4.7681   -0.0171    0.0000 H       1  UNL1        0.0296
     47 H           3.9700   -0.0017    0.0000 H       1  UNL1        0.0296
     48 H           3.4025   -2.7166    0.0000 H       1  UNL1        0.0624
     49 H           8.5752    2.6571    0.0000 H       1  UNL1        0.0274
     50 H           8.1894    1.9582    0.0000 H       1  UNL1        0.0274
     51 H           3.4204   -0.3917    0.0000 H       1  UNL1        0.0619
     52 H           5.9145   -0.0526    0.0000 H       1  UNL1        0.0235
     53 H           5.2993    0.5721    0.0000 H       1  UNL1        0.0235
     54 H           4.6745   -0.0431    0.0000 H       1  UNL1        0.0235
     55 H           7.6188   -2.0779    0.0000 H       1  UNL1        0.0238
     56 H           8.4658   -1.8510    0.0000 H       1  UNL1        0.0238
     57 H           8.2388   -1.0040    0.0000 H       1  UNL1        0.0238
     58 H           9.9379   -1.1455    0.0000 H       1  UNL1        0.0318
     59 H          10.3397   -0.4557    0.0000 H       1  UNL1        0.0318
     60 H           8.8156   -1.6956    0.0000 H       1  UNL1        0.0572
     61 H           8.5488    1.4590    0.0000 H       1  UNL1        0.0238
     62 H           7.9288    2.0790    0.0000 H       1  UNL1        0.0238
     63 H           7.3088    1.4590    0.0000 H       1  UNL1        0.0238
     64 H          10.8817    0.4314    0.0000 H       1  UNL1        0.0276
     65 H          11.2835    1.1212    0.0000 H       1  UNL1        0.0276
     66 H          11.2835    1.9940    0.0000 H       1  UNL1        0.0271
     67 H          10.8817    2.6838    0.0000 H       1  UNL1        0.0271
     68 H           3.3085   -3.1992    0.0000 H       1  UNL1        0.0236
     69 H           3.5387   -4.0452    0.0000 H       1  UNL1        0.0236
     70 H           4.3848   -3.8150    0.0000 H       1  UNL1        0.0236
     71 H           4.3109   -3.8153    0.0000 H       1  UNL1        0.0236
     72 H           5.1587   -4.0390    0.0000 H       1  UNL1        0.0236
     73 H           5.3824   -3.1912    0.0000 H       1  UNL1        0.0236
     74 H          10.7593    3.2033    0.0000 H       1  UNL1        0.0235
     75 H          10.5226    4.0476    0.0000 H       1  UNL1        0.0235
     76 H           9.6783    3.8108    0.0000 H       1  UNL1        0.0235
     77 H           9.7522    3.8117    0.0000 H       1  UNL1        0.0235
     78 H           8.9027    4.0288    0.0000 H       1  UNL1        0.0235
     79 H           8.6855    3.1793    0.0000 H       1  UNL1        0.0235
     80 H           2.0000   -2.2812    0.0000 H       1  UNL1        0.2099
     81 H           2.5590    0.1183    0.0000 H       1  UNL1        0.2099
     82 H          12.0001    0.1874    0.0000 H       1  UNL1        0.2951
@<TRIPOS>BOND
     1    19     1    1
     2     1    80    1
     3    21     2    1
     4     2    81    1
     5     3    32    1
     6     3    82    1
     7     4    32    2
     8     5     6    1
     9     5     7    1
    10     5    12    1
    11     5    35    1
    12     6     8    1
    13     6    17    1
    14     6    22    1
    15     7    10    1
    16     7    13    1
    17     7    23    1
    18     8    14    1
    19     8    15    1
    20     8    36    1
    21     9    10    1
    22     9    11    1
    23     9    16    1
    24     9    26    1
    25    10    25    2
    26    11    18    1
    27    11    20    1
    28    11    37    1
    29    12    16    1
    30    12    38    1
    31    12    39    1
    32    13    15    1
    33    13    40    1
    34    13    41    1
    35    14    19    1
    36    14    30    1
    37    14    31    1
    38    15    42    1
    39    15    43    1
    40    16    44    1
    41    16    45    1
    42    17    21    1
    43    17    46    1
    44    17    47    1
    45    18    24    1
    46    18    28    1
    47    18    32    1
    48    19    21    1
    49    19    48    1
    50    20    27    1
    51    20    49    1
    52    20    50    1
    53    21    51    1
    54    22    52    1
    55    22    53    1
    56    22    54    1
    57    23    55    1
    58    23    56    1
    59    23    57    1
    60    24    25    1
    61    24    58    1
    62    24    59    1
    63    25    60    1
    64    26    61    1
    65    26    62    1
    66    26    63    1
    67    27    29    1
    68    27    33    1
    69    27    34    1
    70    28    29    1
    71    28    64    1
    72    28    65    1
    73    29    66    1
    74    29    67    1
    75    30    68    1
    76    30    69    1
    77    30    70    1
    78    31    71    1
    79    31    72    1
    80    31    73    1
    81    33    74    1
    82    33    75    1
    83    33    76    1
    84    34    77    1
    85    34    78    1
    86    34    79    1
