@<TRIPOS>MOLECULE
IMPHY012108
 12 12 0 0 0
SMALL
GASTEIGER

@<TRIPOS>ATOM
      1 C           3.0000    0.5000    0.0000 C.3     1  UNL1       -0.0531
      2 C           3.0000   -0.5000    0.0000 C.3     1  UNL1       -0.0531
      3 C           2.0000    0.5000    0.0000 C.3     1  UNL1       -0.0531
      4 C           2.0000   -0.5000    0.0000 C.3     1  UNL1       -0.0531
      5 H           3.6200    0.5000    0.0000 H       1  UNL1        0.0265
      6 H           3.0000    1.1200    0.0000 H       1  UNL1        0.0265
      7 H           3.0000   -1.1200    0.0000 H       1  UNL1        0.0265
      8 H           3.6200   -0.5000    0.0000 H       1  UNL1        0.0265
      9 H           2.0000    1.1200    0.0000 H       1  UNL1        0.0265
     10 H           1.3800    0.5000    0.0000 H       1  UNL1        0.0265
     11 H           1.3800   -0.5000    0.0000 H       1  UNL1        0.0265
     12 H           2.0000   -1.1200    0.0000 H       1  UNL1        0.0265
@<TRIPOS>BOND
     1     1     2    1
     2     1     3    1
     3     1     5    1
     4     1     6    1
     5     2     4    1
     6     2     7    1
     7     2     8    1
     8     3     4    1
     9     3     9    1
    10     3    10    1
    11     4    11    1
    12     4    12    1
