@<TRIPOS>MOLECULE
IMPHY013042
 49 49 0 0 0
SMALL
GASTEIGER

@<TRIPOS>ATOM
      1 I           4.2690    0.5950    0.0000 I       1  UNL1       -0.0422
      2 I           7.7331    0.5950    0.0000 I       1  UNL1       -0.0411
      3 I           6.0010   -2.4050    0.0000 I       1  UNL1       -0.0411
      4 O           4.2690   -4.4050    0.0000 O.3     1  UNL1       -0.3880
      5 O           8.5991    3.0950    0.0000 O.3     1  UNL1       -0.3880
      6 O           2.5369   -5.4050    0.0000 O.3     1  UNL1       -0.3924
      7 O           8.5991    5.0950    0.0000 O.3     1  UNL1       -0.3924
      8 O           3.4030   -0.9050    0.0000 O.2     1  UNL1       -0.2701
      9 O           5.1350    2.0950    0.0000 O.2     1  UNL1       -0.2701
     10 O           6.8671   -2.9050    0.0000 O.2     1  UNL1       -0.2758
     11 N           4.2690   -2.4050    0.0000 N.am    1  UNL1       -0.3088
     12 N           6.8671    2.0950    0.0000 N.am    1  UNL1       -0.3088
     13 N           7.7331   -1.4050    0.0000 N.am    1  UNL1       -0.2840
     14 C           3.4030   -2.9050    0.0000 C.3     1  UNL1        0.0401
     15 C           6.8671    3.0950    0.0000 C.3     1  UNL1        0.0401
     16 C           5.1350   -0.9050    0.0000 C.ar    1  UNL1        0.0654
     17 C           6.0010    0.5950    0.0000 C.ar    1  UNL1        0.0654
     18 C           3.4030   -3.9050    0.0000 C.3     1  UNL1        0.0936
     19 C           7.7331    3.5950    0.0000 C.3     1  UNL1        0.0936
     20 C           5.1350    0.0950    0.0000 C.ar    1  UNL1        0.0397
     21 C           6.8671   -0.9050    0.0000 C.ar    1  UNL1        0.0614
     22 C           6.8671    0.0950    0.0000 C.ar    1  UNL1        0.0487
     23 C           6.0010   -1.4050    0.0000 C.ar    1  UNL1        0.0487
     24 C           4.2690   -1.4050    0.0000 C.2     1  UNL1        0.2462
     25 C           6.0010    1.5950    0.0000 C.2     1  UNL1        0.2462
     26 C           2.5369   -4.4050    0.0000 C.3     1  UNL1        0.0716
     27 C           7.7331    4.5950    0.0000 C.3     1  UNL1        0.0716
     28 C           7.7331   -2.4050    0.0000 C.2     1  UNL1        0.2141
     29 C           8.5991   -2.9050    0.0000 C.3     1  UNL1        0.0125
     30 H           3.1909   -2.3224    0.0000 H       1  UNL1        0.0488
     31 H           2.7924   -3.0127    0.0000 H       1  UNL1        0.0488
     32 H           6.6550    3.6776    0.0000 H       1  UNL1        0.0488
     33 H           6.2565    2.9873    0.0000 H       1  UNL1        0.0488
     34 H           3.9399   -3.5950    0.0000 H       1  UNL1        0.0632
     35 H           7.7331    2.9750    0.0000 H       1  UNL1        0.0632
     36 H           4.8059   -2.7150    0.0000 H       1  UNL1        0.1491
     37 H           7.4040    1.7850    0.0000 H       1  UNL1        0.1491
     38 H           2.3249   -3.8224    0.0000 H       1  UNL1        0.0583
     39 H           1.9264   -4.5127    0.0000 H       1  UNL1        0.0583
     40 H           7.5210    5.1776    0.0000 H       1  UNL1        0.0583
     41 H           7.1225    4.4873    0.0000 H       1  UNL1        0.0583
     42 H           8.2700   -1.0950    0.0000 H       1  UNL1        0.1549
     43 H           4.2690   -5.0250    0.0000 H       1  UNL1        0.2099
     44 H           9.1360    3.4050    0.0000 H       1  UNL1        0.2099
     45 H           2.0000   -5.7150    0.0000 H       1  UNL1        0.2095
     46 H           8.5991    5.7150    0.0000 H       1  UNL1        0.2095
     47 H           8.2891   -3.4419    0.0000 H       1  UNL1        0.0323
     48 H           9.1360   -3.2150    0.0000 H       1  UNL1        0.0323
     49 H           8.9091   -2.3681    0.0000 H       1  UNL1        0.0323
@<TRIPOS>BOND
     1     1    20    1
     2     2    22    1
     3     3    23    1
     4     4    18    1
     5     4    43    1
     6     5    19    1
     7     5    44    1
     8     6    26    1
     9     6    45    1
    10     7    27    1
    11     7    46    1
    12     8    24    2
    13     9    25    2
    14    10    28    2
    15    11    14    1
    16    11    24   am
    17    11    36    1
    18    12    15    1
    19    12    25   am
    20    12    37    1
    21    13    21    1
    22    13    28   am
    23    13    42    1
    24    14    18    1
    25    14    30    1
    26    14    31    1
    27    15    19    1
    28    15    32    1
    29    15    33    1
    30    16    20   ar
    31    16    23   ar
    32    16    24    1
    33    17    20   ar
    34    17    22   ar
    35    17    25    1
    36    18    26    1
    37    18    34    1
    38    19    27    1
    39    19    35    1
    40    21    22   ar
    41    21    23   ar
    42    26    38    1
    43    26    39    1
    44    27    40    1
    45    27    41    1
    46    28    29    1
    47    29    47    1
    48    29    48    1
    49    29    49    1
