@<TRIPOS>MOLECULE
IMPHY006756
 55 60 0 0 0
SMALL
GASTEIGER

@<TRIPOS>ATOM
      1 O           7.2130    3.6114    0.0000 O.2     1  UNL1       -0.2749
      2 O           2.5878    1.8360    0.0000 O.3     1  UNL1       -0.4914
      3 O           3.3902    3.6382    0.0000 O.3     1  UNL1       -0.4914
      4 O           7.4246   -4.0148    0.0000 O.3     1  UNL1       -0.3910
      5 N           4.9192   -0.6689    0.0000 N.3     1  UNL1       -0.2945
      6 N           6.4845    2.0422    0.0000 N.am    1  UNL1       -0.2627
      7 C           5.8444    0.6044    0.0000 C.3     1  UNL1        0.0370
      8 C           5.8444   -0.3684    0.0000 C.3     1  UNL1        0.0233
      9 C           6.6868    1.0908    0.0000 C.3     1  UNL1        0.0638
     10 C           4.9192    0.9050    0.0000 C.3     1  UNL1       -0.0270
     11 C           6.6868   -0.8547    0.0000 C.3     1  UNL1       -0.0261
     12 C           7.5292   -0.3684    0.0000 C.3     1  UNL1        0.0057
     13 C           7.5292    0.6044    0.0000 C.2     1  UNL1       -0.0444
     14 C           4.3475    0.1180    0.0000 C.3     1  UNL1        0.0004
     15 C           5.1215    1.2553    0.0000 C.ar    1  UNL1       -0.0125
     16 C           5.6924   -1.4168    0.0000 C.3     1  UNL1        0.0210
     17 C           6.9246   -1.4168    0.0000 C.2     1  UNL1       -0.0502
     18 C           5.5171    2.1439    0.0000 C.ar    1  UNL1        0.0445
     19 C           8.3282    1.2078    0.0000 C.2     1  UNL1       -0.0737
     20 C           7.3053    2.6157    0.0000 C.2     1  UNL1        0.2241
     21 C           4.1541    1.1536    0.0000 C.ar    1  UNL1       -0.0107
     22 C           8.2174    2.2029    0.0000 C.3     1  UNL1        0.0430
     23 C           4.9454    2.9309    0.0000 C.ar    1  UNL1        0.0054
     24 C           7.4246   -2.2828    0.0000 C.2     1  UNL1       -0.0579
     25 C           3.5823    1.9406    0.0000 C.ar    1  UNL1        0.1619
     26 C           3.9780    2.8292    0.0000 C.ar    1  UNL1        0.1633
     27 C           6.9246   -3.1488    0.0000 C.3     1  UNL1        0.0627
     28 C           2.0000    2.6450    0.0000 C.3     1  UNL1        0.0790
     29 C           3.7969    4.5518    0.0000 C.3     1  UNL1        0.0790
     30 H           5.3751   -1.0771    0.0000 H       1  UNL1        0.0472
     31 H           7.3744    1.5904    0.0000 H       1  UNL1        0.0560
     32 H           5.1714    1.4714    0.0000 H       1  UNL1        0.0287
     33 H           4.3823    1.2150    0.0000 H       1  UNL1        0.0287
     34 H           6.2882   -1.3297    0.0000 H       1  UNL1        0.0289
     35 H           7.0853   -1.3297    0.0000 H       1  UNL1        0.0289
     36 H           8.3503   -0.5882    0.0000 H       1  UNL1        0.0392
     37 H           3.8867    0.5329    0.0000 H       1  UNL1        0.0427
     38 H           3.8867   -0.2968    0.0000 H       1  UNL1        0.0427
     39 H           5.1590   -1.7327    0.0000 H       1  UNL1        0.0473
     40 H           5.8562   -2.0147    0.0000 H       1  UNL1        0.0473
     41 H           8.8977    0.9626    0.0000 H       1  UNL1        0.0577
     42 H           3.9019    0.5872    0.0000 H       1  UNL1        0.0659
     43 H           8.8360    2.1609    0.0000 H       1  UNL1        0.0401
     44 H           8.3687    2.8041    0.0000 H       1  UNL1        0.0401
     45 H           5.1975    3.4973    0.0000 H       1  UNL1        0.0674
     46 H           8.0445   -2.2828    0.0000 H       1  UNL1        0.0595
     47 H           6.4496   -2.7503    0.0000 H       1  UNL1        0.0601
     48 H           6.4496   -3.5473    0.0000 H       1  UNL1        0.0601
     49 H           7.1146   -4.5518    0.0000 H       1  UNL1        0.2098
     50 H           2.5016    3.0095    0.0000 H       1  UNL1        0.0660
     51 H           1.6356    3.1466    0.0000 H       1  UNL1        0.0660
     52 H           1.4984    2.2806    0.0000 H       1  UNL1        0.0660
     53 H           4.3633    4.2996    0.0000 H       1  UNL1        0.0660
     54 H           4.0491    5.1182    0.0000 H       1  UNL1        0.0660
     55 H           3.2305    4.8039    0.0000 H       1  UNL1        0.0660
@<TRIPOS>BOND
     1     1    20    2
     2     2    25    1
     3     2    28    1
     4     3    26    1
     5     3    29    1
     6     4    27    1
     7     4    49    1
     8     5     8    1
     9     5    14    1
    10     5    16    1
    11     6     9    1
    12     6    18    1
    13     6    20   am
    14     7     8    1
    15     7     9    1
    16     7    10    1
    17     7    15    1
    18     8    11    1
    19     8    30    1
    20     9    13    1
    21     9    31    1
    22    10    14    1
    23    10    32    1
    24    10    33    1
    25    11    12    1
    26    11    34    1
    27    11    35    1
    28    12    13    1
    29    12    17    1
    30    12    36    1
    31    13    19    2
    32    14    37    1
    33    14    38    1
    34    15    18   ar
    35    15    21   ar
    36    16    17    1
    37    16    39    1
    38    16    40    1
    39    17    24    2
    40    18    23   ar
    41    19    22    1
    42    19    41    1
    43    20    22    1
    44    21    25   ar
    45    21    42    1
    46    22    43    1
    47    22    44    1
    48    23    26   ar
    49    23    45    1
    50    24    27    1
    51    24    46    1
    52    25    26   ar
    53    27    47    1
    54    27    48    1
    55    28    50    1
    56    28    51    1
    57    28    52    1
    58    29    53    1
    59    29    54    1
    60    29    55    1
