@<TRIPOS>MOLECULE
IMPHY010015
 42 44 0 0 0
SMALL
GASTEIGER

@<TRIPOS>ATOM
      1 O           6.6420    0.2846    0.0000 O.3     1  UNL1       -0.3886
      2 C           3.9099    0.2846    0.0000 C.3     1  UNL1       -0.0271
      3 C           4.7760   -0.2154    0.0000 C.3     1  UNL1       -0.0057
      4 C           3.9099    1.2846    0.0000 C.3     1  UNL1       -0.0344
      5 C           4.7920   -1.2569    0.0000 C.3     1  UNL1       -0.0325
      6 C           3.6173   -0.2408    0.0000 C.3     1  UNL1       -0.0376
      7 C           2.9999   -0.2222    0.0000 C.3     1  UNL1       -0.0314
      8 C           5.6420    0.2846    0.0000 C.3     1  UNL1        0.0667
      9 C           3.8940   -1.7846    0.0000 C.3     1  UNL1       -0.0491
     10 C           4.7760    1.7846    0.0000 C.3     1  UNL1       -0.0471
     11 C           2.9919   -1.2638    0.0000 C.3     1  UNL1       -0.0473
     12 C           5.6420    1.2846    0.0000 C.3     1  UNL1       -0.0237
     13 C           3.2243    0.6788    0.0000 C.3     1  UNL1       -0.0619
     14 C           2.0000   -0.2107    0.0000 C.3     1  UNL1       -0.0595
     15 C           2.2414    0.4294    0.0000 C.3     1  UNL1       -0.0595
     16 C           6.1420   -0.5814    0.0000 C.3     1  UNL1       -0.0358
     17 H           3.3754    0.5988    0.0000 H       1  UNL1        0.0312
     18 H           5.5121   -0.6404    0.0000 H       1  UNL1        0.0334
     19 H           3.4047    1.6440    0.0000 H       1  UNL1        0.0306
     20 H           5.3325   -1.5607    0.0000 H       1  UNL1        0.0307
     21 H           3.5648   -0.8585    0.0000 H       1  UNL1        0.0304
     22 H           3.4967   -2.2606    0.0000 H       1  UNL1        0.0268
     23 H           4.2950   -2.2575    0.0000 H       1  UNL1        0.0268
     24 H           5.1745    2.2596    0.0000 H       1  UNL1        0.0269
     25 H           4.3774    2.2596    0.0000 H       1  UNL1        0.0269
     26 H           2.3819   -1.1530    0.0000 H       1  UNL1        0.0271
     27 H           2.7784   -1.8459    0.0000 H       1  UNL1        0.0271
     28 H           6.2526    1.1770    0.0000 H       1  UNL1        0.0293
     29 H           5.8540    1.8672    0.0000 H       1  UNL1        0.0293
     30 H           3.7944    0.9224    0.0000 H       1  UNL1        0.0233
     31 H           2.9807    1.2489    0.0000 H       1  UNL1        0.0233
     32 H           2.6542    0.4351    0.0000 H       1  UNL1        0.0233
     33 H           2.6454    0.8997    0.0000 H       1  UNL1        0.0235
     34 H           1.7711    0.8334    0.0000 H       1  UNL1        0.0235
     35 H           1.8374   -0.0409    0.0000 H       1  UNL1        0.0235
     36 H           2.0072    0.4093    0.0000 H       1  UNL1        0.0235
     37 H           1.3800   -0.2035    0.0000 H       1  UNL1        0.0235
     38 H           1.9928   -0.8306    0.0000 H       1  UNL1        0.0235
     39 H           5.6050   -0.8914    0.0000 H       1  UNL1        0.0257
     40 H           6.4520   -1.1183    0.0000 H       1  UNL1        0.0257
     41 H           6.6789   -0.2714    0.0000 H       1  UNL1        0.0257
     42 H           6.9520    0.8216    0.0000 H       1  UNL1        0.2102
@<TRIPOS>BOND
     1     8     1    1
     2     1    42    1
     3     2     3    1
     4     2     4    1
     5     2     7    1
     6     2    17    1
     7     3     5    1
     8     3     8    1
     9     3    18    1
    10     4     6    1
    11     4    10    1
    12     4    19    1
    13     5     6    1
    14     5     9    1
    15     5    20    1
    16     6    13    1
    17     6    21    1
    18     7    11    1
    19     7    14    1
    20     7    15    1
    21     8    12    1
    22     8    16    1
    23     9    11    1
    24     9    22    1
    25     9    23    1
    26    10    12    1
    27    10    24    1
    28    10    25    1
    29    11    26    1
    30    11    27    1
    31    12    28    1
    32    12    29    1
    33    13    30    1
    34    13    31    1
    35    13    32    1
    36    14    36    1
    37    14    37    1
    38    14    38    1
    39    15    33    1
    40    15    34    1
    41    15    35    1
    42    16    39    1
    43    16    40    1
    44    16    41    1
