@<TRIPOS>MOLECULE
IMPHY001277
 43 47 0 0 0
SMALL
GASTEIGER

@<TRIPOS>ATOM
      1 O           5.4390   -0.4034    0.0000 O.3     1  UNL1       -0.3893
      2 O           8.9116    1.0382    0.0000 O.3     1  UNL1       -0.4573
      3 O           2.6079   -0.6687    0.0000 O.3     1  UNL1       -0.4526
      4 O           2.6079   -2.3451    0.0000 O.3     1  UNL1       -0.4526
      5 O           8.0513    2.5416    0.0000 O.2     1  UNL1       -0.2511
      6 N           7.1256   -2.0069    0.0000 N.3     1  UNL1       -0.2914
      7 C           6.2596   -0.5069    0.0000 C.3     1  UNL1        0.0570
      8 C           7.1256   -1.0069    0.0000 C.3     1  UNL1        0.0300
      9 C           6.1461   -1.1105    0.0000 C.3     1  UNL1        0.0824
     10 C           6.5462   -1.8033    0.0000 C.3     1  UNL1        0.0268
     11 C           8.0356   -0.5000    0.0000 C.3     1  UNL1        0.0049
     12 C           5.3935   -1.0069    0.0000 C.ar    1  UNL1       -0.0254
     13 C           6.2596   -2.5069    0.0000 C.3     1  UNL1        0.0249
     14 C           6.2435    0.5346    0.0000 C.2     1  UNL1       -0.0701
     15 C           5.3935   -2.0069    0.0000 C.ar    1  UNL1       -0.0255
     16 C           8.0436    0.5416    0.0000 C.3     1  UNL1        0.1227
     17 C           7.1415    1.0624    0.0000 C.2     1  UNL1       -0.0469
     18 C           4.4996   -0.4722    0.0000 C.ar    1  UNL1       -0.0117
     19 C           4.4996   -2.5416    0.0000 C.ar    1  UNL1       -0.0114
     20 C           3.5935   -0.9861    0.0000 C.ar    1  UNL1        0.1665
     21 C           3.5935   -2.0277    0.0000 C.ar    1  UNL1        0.1665
     22 C           2.0000   -1.5069    0.0000 C.3     1  UNL1        0.2332
     23 C           8.9154    2.0382    0.0000 C.2     1  UNL1        0.3045
     24 C           9.7834    2.5349    0.0000 C.3     1  UNL1        0.0333
     25 H           7.8617   -1.4319    0.0000 H       1  UNL1        0.0476
     26 H           5.6543   -1.4879    0.0000 H       1  UNL1        0.0618
     27 H           5.9434   -1.9485    0.0000 H       1  UNL1        0.0452
     28 H           6.5147   -2.4225    0.0000 H       1  UNL1        0.0452
     29 H           8.2401   -1.0853    0.0000 H       1  UNL1        0.0320
     30 H           8.6472   -0.3987    0.0000 H       1  UNL1        0.0320
     31 H           5.8610   -2.9818    0.0000 H       1  UNL1        0.0476
     32 H           6.6581   -2.9818    0.0000 H       1  UNL1        0.0476
     33 H           5.7030    0.8384    0.0000 H       1  UNL1        0.0580
     34 H           8.0448    1.1616    0.0000 H       1  UNL1        0.0780
     35 H           7.1391    1.6824    0.0000 H       1  UNL1        0.0606
     36 H           4.5068    0.1477    0.0000 H       1  UNL1        0.0658
     37 H           5.5995    0.1955    0.0000 H       1  UNL1        0.2099
     38 H           4.5068   -3.1615    0.0000 H       1  UNL1        0.0658
     39 H           1.5391   -1.0922    0.0000 H       1  UNL1        0.1166
     40 H           1.5391   -1.9216    0.0000 H       1  UNL1        0.1166
     41 H          10.0913    1.9967    0.0000 H       1  UNL1        0.0342
     42 H          10.3215    2.8428    0.0000 H       1  UNL1        0.0342
     43 H           9.4754    3.0730    0.0000 H       1  UNL1        0.0342
@<TRIPOS>BOND
     1     9     1    1
     2     1    37    1
     3    16     2    1
     4     2    23    1
     5     3    20    1
     6     3    22    1
     7     4    21    1
     8     4    22    1
     9     5    23    2
    10     6     8    1
    11     6    10    1
    12     6    13    1
    13     7     8    1
    14     7     9    1
    15     7    12    1
    16     7    14    1
    17     8    11    1
    18     8    25    1
    19     9    10    1
    20     9    26    1
    21    10    27    1
    22    10    28    1
    23    11    16    1
    24    11    29    1
    25    11    30    1
    26    12    15   ar
    27    12    18   ar
    28    13    15    1
    29    13    31    1
    30    13    32    1
    31    14    17    2
    32    14    33    1
    33    15    19   ar
    34    16    17    1
    35    16    34    1
    36    17    35    1
    37    18    20   ar
    38    18    36    1
    39    19    21   ar
    40    19    38    1
    41    20    21   ar
    42    22    39    1
    43    22    40    1
    44    23    24    1
    45    24    41    1
    46    24    42    1
    47    24    43    1
