@<TRIPOS>MOLECULE
IMPHY010362
 53 57 0 0 0
SMALL
GASTEIGER

@<TRIPOS>ATOM
      1 O           7.7737    1.3484    0.0000 O.3     1  UNL1       -0.4811
      2 O           4.2377    1.3762    0.0000 O.3     1  UNL1       -0.4250
      3 O           6.8758    3.9108    0.0000 O.3     1  UNL1       -0.3875
      4 O           5.9977   -1.6584    0.0000 O.3     1  UNL1       -0.5062
      5 O           2.4676    1.3657    0.0000 O.2     1  UNL1       -0.2504
      6 O           2.5405   -3.7129    0.0000 O.3     1  UNL1       -0.5033
      7 O          11.2458    2.3766    0.0000 O.3     1  UNL1       -0.5033
      8 O           4.2840   -4.6928    0.0000 O.3     1  UNL1       -0.5033
      9 O          11.2535    4.3766    0.0000 O.3     1  UNL1       -0.5033
     10 C           6.8797    2.9108    0.0000 C.3     1  UNL1        0.1004
     11 C           5.9977    1.3416    0.0000 C.ar    1  UNL1        0.0397
     12 C           5.9816    2.3830    0.0000 C.3     1  UNL1        0.0092
     13 C           4.2377   -0.6931    0.0000 C.3     1  UNL1        0.0264
     14 C           7.7818    2.3900    0.0000 C.3     1  UNL1        0.1513
     15 C           5.1317   -0.1585    0.0000 C.ar    1  UNL1        0.0447
     16 C           5.1317    0.8415    0.0000 C.ar    1  UNL1        0.1456
     17 C           6.8637    0.8415    0.0000 C.ar    1  UNL1        0.1317
     18 C           3.3317   -0.1793    0.0000 C.3     1  UNL1        0.0564
     19 C           5.9977   -0.6585    0.0000 C.ar    1  UNL1        0.1276
     20 C           6.8637   -0.1585    0.0000 C.ar    1  UNL1        0.0224
     21 C           4.2493   -1.6930    0.0000 C.ar    1  UNL1       -0.0355
     22 C           8.6497    2.8866    0.0000 C.ar    1  UNL1       -0.0012
     23 C           3.3317    0.8624    0.0000 C.2     1  UNL1        0.3132
     24 C           3.3891   -2.2030    0.0000 C.ar    1  UNL1       -0.0128
     25 C           5.1210   -2.1830    0.0000 C.ar    1  UNL1       -0.0543
     26 C           9.5138    2.3833    0.0000 C.ar    1  UNL1       -0.0098
     27 C           8.6535    3.8866    0.0000 C.ar    1  UNL1       -0.0513
     28 C           3.4007   -3.2030    0.0000 C.ar    1  UNL1        0.1585
     29 C          10.3817    2.8800    0.0000 C.ar    1  UNL1        0.1586
     30 C           5.1326   -3.1829    0.0000 C.ar    1  UNL1       -0.0163
     31 C           9.5215    4.3833    0.0000 C.ar    1  UNL1       -0.0162
     32 C           4.2724   -3.6929    0.0000 C.ar    1  UNL1        0.1582
     33 C          10.3856    3.8800    0.0000 C.ar    1  UNL1        0.1582
     34 H           6.3410    3.2177    0.0000 H       1  UNL1        0.0637
     35 H           5.7636    2.9634    0.0000 H       1  UNL1        0.0342
     36 H           5.3725    2.2676    0.0000 H       1  UNL1        0.0342
     37 H           3.7038   -1.0083    0.0000 H       1  UNL1        0.0405
     38 H           8.3169    2.0769    0.0000 H       1  UNL1        0.0811
     39 H           2.7208   -0.0732    0.0000 H       1  UNL1        0.0387
     40 H           3.1226   -0.7630    0.0000 H       1  UNL1        0.0387
     41 H           7.4007   -0.4685    0.0000 H       1  UNL1        0.0691
     42 H           6.3377    4.2187    0.0000 H       1  UNL1        0.2100
     43 H           2.8486   -1.8993    0.0000 H       1  UNL1        0.0658
     44 H           5.6544   -1.8668    0.0000 H       1  UNL1        0.0622
     45 H           9.5114    1.7633    0.0000 H       1  UNL1        0.0659
     46 H           8.1178    4.1987    0.0000 H       1  UNL1        0.0623
     47 H           6.5346   -1.9684    0.0000 H       1  UNL1        0.2921
     48 H           5.6731   -3.4867    0.0000 H       1  UNL1        0.0655
     49 H           9.5239    5.0033    0.0000 H       1  UNL1        0.0655
     50 H           2.0000   -3.4092    0.0000 H       1  UNL1        0.2923
     51 H          11.7840    2.6846    0.0000 H       1  UNL1        0.2923
     52 H           4.8245   -4.9966    0.0000 H       1  UNL1        0.2923
     53 H          11.2559    4.9966    0.0000 H       1  UNL1        0.2923
@<TRIPOS>BOND
     1     1    14    1
     2     1    17    1
     3     2    16    1
     4     2    23    1
     5    10     3    1
     6     3    42    1
     7     4    19    1
     8     4    47    1
     9     5    23    2
    10     6    28    1
    11     6    50    1
    12     7    29    1
    13     7    51    1
    14     8    32    1
    15     8    52    1
    16     9    33    1
    17     9    53    1
    18    10    12    1
    19    10    14    1
    20    10    34    1
    21    11    12    1
    22    11    16   ar
    23    11    17   ar
    24    12    35    1
    25    12    36    1
    26    13    15    1
    27    13    18    1
    28    13    21    1
    29    13    37    1
    30    14    22    1
    31    14    38    1
    32    15    16   ar
    33    15    19   ar
    34    17    20   ar
    35    18    23    1
    36    18    39    1
    37    18    40    1
    38    19    20   ar
    39    20    41    1
    40    21    24   ar
    41    21    25   ar
    42    22    26   ar
    43    22    27   ar
    44    24    28   ar
    45    24    43    1
    46    25    30   ar
    47    25    44    1
    48    26    29   ar
    49    26    45    1
    50    27    31   ar
    51    27    46    1
    52    28    32   ar
    53    29    33   ar
    54    30    32   ar
    55    30    48    1
    56    31    33   ar
    57    31    49    1
