@<TRIPOS>MOLECULE
IMPHY008191
 97 104 0 0 0
SMALL
GASTEIGER

@<TRIPOS>ATOM
      1 O          11.1488    3.8440    0.0000 O.3     1  UNL1       -0.3398
      2 O          12.1566    3.1012    0.0000 O.3     1  UNL1       -0.3358
      3 O          11.8413    0.9902    0.0000 O.3     1  UNL1       -0.3859
      4 O           6.2951   -3.0189    0.0000 O.3     1  UNL1       -0.3449
      5 O           4.8174   -2.1154    0.0000 O.3     1  UNL1       -0.3461
      6 O           5.2518   -4.7252    0.0000 O.3     1  UNL1       -0.3841
      7 O           3.2524   -4.6748    0.0000 O.3     1  UNL1       -0.3864
      8 O           2.2964   -2.9181    0.0000 O.3     1  UNL1       -0.3869
      9 C           8.5763    0.6384    0.0000 C.3     1  UNL1       -0.0193
     10 C           8.0030   -0.2752    0.0000 C.3     1  UNL1       -0.0193
     11 C           9.6115    0.6163    0.0000 C.3     1  UNL1       -0.0264
     12 C           7.4980    0.6783    0.0000 C.3     1  UNL1       -0.0401
     13 C          10.1414    1.5059    0.0000 C.3     1  UNL1        0.0081
     14 C           8.5149   -1.2246    0.0000 C.3     1  UNL1       -0.0273
     15 C           9.6696    2.3809    0.0000 C.3     1  UNL1       -0.0158
     16 C           8.0848    1.5498    0.0000 C.3     1  UNL1       -0.0460
     17 C           6.8806   -0.2253    0.0000 C.3     1  UNL1       -0.0442
     18 C          10.1452   -0.3209    0.0000 C.3     1  UNL1       -0.0488
     19 C           8.6351    2.4269    0.0000 C.3     1  UNL1       -0.0461
     20 C          10.3547    3.1012    0.0000 C.3     1  UNL1        0.0244
     21 C           9.5933   -1.2476    0.0000 C.3     1  UNL1       -0.0488
     22 C          11.1197    1.6826    0.0000 C.3     1  UNL1        0.1153
     23 C           7.9400   -2.1898    0.0000 C.3     1  UNL1       -0.0052
     24 C          11.2557    2.6673    0.0000 C.3     1  UNL1        0.2013
     25 C           6.2835   -1.1769    0.0000 C.3     1  UNL1       -0.0255
     26 C          10.6160    0.6257    0.0000 C.3     1  UNL1       -0.0562
     27 C           6.8168   -2.1658    0.0000 C.3     1  UNL1        0.0672
     28 C           9.1950    3.2611    0.0000 C.3     1  UNL1       -0.0585
     29 C          10.1322    4.0761    0.0000 C.3     1  UNL1       -0.0331
     30 C           7.9225   -3.1896    0.0000 C.3     1  UNL1       -0.0572
     31 C           8.7971   -2.7048    0.0000 C.3     1  UNL1       -0.0572
     32 C          11.7557    4.8579    0.0000 C.3     1  UNL1        0.0923
     33 C          10.7557    4.8579    0.0000 C.3     1  UNL1       -0.0207
     34 C          12.3791    4.0761    0.0000 C.3     1  UNL1        0.1087
     35 C           9.1572    4.2986    0.0000 C.3     1  UNL1       -0.0619
     36 C          13.3541    4.2986    0.0000 C.2     1  UNL1       -0.0488
     37 C           5.2954   -2.9937    0.0000 C.3     1  UNL1        0.1878
     38 C           4.7738   -3.8469    0.0000 C.3     1  UNL1        0.1341
     39 C          13.6488    5.2542    0.0000 C.3     1  UNL1       -0.0415
     40 C          14.0342    3.5656    0.0000 C.2     1  UNL1       -0.0972
     41 C           3.7741   -3.8217    0.0000 C.3     1  UNL1        0.1137
     42 C           3.8177   -2.0902    0.0000 C.3     1  UNL1        0.0792
     43 C           3.2960   -2.9433    0.0000 C.3     1  UNL1        0.1069
     44 H          10.4615    0.6080    0.0000 H       1  UNL1        0.0313
     45 H           7.4129    1.2925    0.0000 H       1  UNL1        0.0276
     46 H           6.9080    0.4878    0.0000 H       1  UNL1        0.0276
     47 H           8.9270   -1.9680    0.0000 H       1  UNL1        0.0312
     48 H           7.6238    1.9643    0.0000 H       1  UNL1        0.0271
     49 H           7.5975    1.1665    0.0000 H       1  UNL1        0.0271
     50 H           7.0138    0.3803    0.0000 H       1  UNL1        0.0272
     51 H           6.3068    0.0095    0.0000 H       1  UNL1        0.0272
     52 H          10.6157   -0.7247    0.0000 H       1  UNL1        0.0268
     53 H          10.6235    0.0735    0.0000 H       1  UNL1        0.0268
     54 H           8.7683    3.0324    0.0000 H       1  UNL1        0.0271
     55 H           8.0613    2.6617    0.0000 H       1  UNL1        0.0271
     56 H           9.5350    3.3262    0.0000 H       1  UNL1        0.0362
     57 H           9.4742   -1.8560    0.0000 H       1  UNL1        0.0268
     58 H          10.1724   -1.4690    0.0000 H       1  UNL1        0.0268
     59 H          10.8741    0.8688    0.0000 H       1  UNL1        0.0653
     60 H           5.8225   -0.7624    0.0000 H       1  UNL1        0.0290
     61 H           5.7962   -1.5602    0.0000 H       1  UNL1        0.0290
     62 H          10.0703    0.3314    0.0000 H       1  UNL1        0.0236
     63 H          10.9103    0.0800    0.0000 H       1  UNL1        0.0236
     64 H          11.1617    0.9200    0.0000 H       1  UNL1        0.0236
     65 H           6.1970   -2.1490    0.0000 H       1  UNL1        0.0602
     66 H           9.7407    3.5553    0.0000 H       1  UNL1        0.0235
     67 H           8.9007    3.8068    0.0000 H       1  UNL1        0.0235
     68 H           8.6492    2.9668    0.0000 H       1  UNL1        0.0235
     69 H           9.8514    4.8784    0.0000 H       1  UNL1        0.0303
     70 H           7.3026   -3.1788    0.0000 H       1  UNL1        0.0236
     71 H           7.9116   -3.8095    0.0000 H       1  UNL1        0.0236
     72 H           8.5424   -3.2004    0.0000 H       1  UNL1        0.0236
     73 H           8.4778   -3.2363    0.0000 H       1  UNL1        0.0236
     74 H           9.3286   -3.0242    0.0000 H       1  UNL1        0.0236
     75 H           9.1165   -2.1734    0.0000 H       1  UNL1        0.0236
     76 H          12.1245    5.6238    0.0000 H       1  UNL1        0.0626
     77 H          10.8936    5.4624    0.0000 H       1  UNL1        0.0294
     78 H          10.1971    5.1269    0.0000 H       1  UNL1        0.0294
     79 H          12.9802    3.4751    0.0000 H       1  UNL1        0.0670
     80 H          12.4367    1.1631    0.0000 H       1  UNL1        0.2100
     81 H           9.2952    4.9031    0.0000 H       1  UNL1        0.0233
     82 H           8.5528    4.4366    0.0000 H       1  UNL1        0.0233
     83 H           9.0193    3.6942    0.0000 H       1  UNL1        0.0233
     84 H           5.5918   -3.5383    0.0000 H       1  UNL1        0.0937
     85 H           4.4503   -4.3758    0.0000 H       1  UNL1        0.0671
     86 H          14.2413    5.0714    0.0000 H       1  UNL1        0.0275
     87 H          13.8316    5.8466    0.0000 H       1  UNL1        0.0275
     88 H          13.0564    5.4369    0.0000 H       1  UNL1        0.0275
     89 H          13.8515    2.9731    0.0000 H       1  UNL1        0.0535
     90 H          14.6387    3.7035    0.0000 H       1  UNL1        0.0535
     91 H           3.1543   -3.8061    0.0000 H       1  UNL1        0.0647
     92 H           3.9407   -1.4825    0.0000 H       1  UNL1        0.0587
     93 H           3.2406   -1.8635    0.0000 H       1  UNL1        0.0587
     94 H           2.9997   -2.3988    0.0000 H       1  UNL1        0.0643
     95 H           4.9284   -5.2542    0.0000 H       1  UNL1        0.2101
     96 H           2.6326   -4.6592    0.0000 H       1  UNL1        0.2100
     97 H           2.0000   -2.3736    0.0000 H       1  UNL1        0.2100
@<TRIPOS>BOND
     1     1    24    1
     2     1    32    1
     3     2    24    1
     4     2    34    1
     5     3    22    1
     6     3    80    1
     7    27     4    1
     8    37     4    1
     9     5    37    1
    10     5    42    1
    11    38     6    1
    12     6    95    1
    13    41     7    1
    14     7    96    1
    15    43     8    1
    16     8    97    1
    17     9    10    1
    18     9    11    1
    19     9    12    1
    20     9    16    1
    21    10    12    1
    22    10    14    1
    23    10    17    1
    24    11    13    1
    25    11    18    1
    26    11    44    1
    27    12    45    1
    28    12    46    1
    29    13    15    1
    30    13    22    1
    31    13    26    1
    32    14    21    1
    33    14    23    1
    34    14    47    1
    35    15    19    1
    36    15    20    1
    37    15    28    1
    38    16    19    1
    39    16    48    1
    40    16    49    1
    41    17    25    1
    42    17    50    1
    43    17    51    1
    44    18    21    1
    45    18    52    1
    46    18    53    1
    47    19    54    1
    48    19    55    1
    49    20    24    1
    50    20    29    1
    51    20    56    1
    52    21    57    1
    53    21    58    1
    54    22    24    1
    55    22    59    1
    56    23    27    1
    57    23    30    1
    58    23    31    1
    59    25    27    1
    60    25    60    1
    61    25    61    1
    62    26    62    1
    63    26    63    1
    64    26    64    1
    65    27    65    1
    66    28    66    1
    67    28    67    1
    68    28    68    1
    69    29    33    1
    70    29    35    1
    71    29    69    1
    72    30    70    1
    73    30    71    1
    74    30    72    1
    75    31    73    1
    76    31    74    1
    77    31    75    1
    78    32    33    1
    79    32    34    1
    80    32    76    1
    81    33    77    1
    82    33    78    1
    83    34    36    1
    84    34    79    1
    85    35    81    1
    86    35    82    1
    87    35    83    1
    88    36    39    1
    89    36    40    2
    90    37    38    1
    91    37    84    1
    92    38    41    1
    93    38    85    1
    94    39    86    1
    95    39    87    1
    96    39    88    1
    97    40    89    1
    98    40    90    1
    99    41    43    1
   100    41    91    1
   101    42    43    1
   102    42    92    1
   103    42    93    1
   104    43    94    1
