@<TRIPOS>MOLECULE
IMPHY009509
 78 81 0 0 0
SMALL
GASTEIGER

@<TRIPOS>ATOM
      1 O          12.3639    0.7284    0.0000 O.3     1  UNL1       -0.3950
      2 C           6.5251   -0.6074    0.0000 C.3     1  UNL1       -0.0222
      3 C           6.5251   -1.6074    0.0000 C.3     1  UNL1       -0.0139
      4 C           4.7931   -1.6074    0.0000 C.3     1  UNL1       -0.0139
      5 C           3.8831   -2.1143    0.0000 C.3     1  UNL1       -0.0224
      6 C           7.4714   -0.3027    0.0000 C.3     1  UNL1       -0.0291
      7 C           5.6591   -2.1074    0.0000 C.2     1  UNL1       -0.0662
      8 C           5.6591   -0.1074    0.0000 C.3     1  UNL1       -0.0463
      9 C           4.7931   -0.6074    0.0000 C.3     1  UNL1       -0.0455
     10 C           3.8751   -3.1559    0.0000 C.3     1  UNL1       -0.0317
     11 C           7.4714   -1.9122    0.0000 C.3     1  UNL1       -0.0457
     12 C           8.0550   -1.1074    0.0000 C.3     1  UNL1       -0.0486
     13 C           2.9562   -1.5502    0.0000 C.3     1  UNL1       -0.0468
     14 C           4.7771   -3.6767    0.0000 C.3     1  UNL1       -0.0311
     15 C           6.5251    0.3926    0.0000 C.3     1  UNL1       -0.0587
     16 C           5.6752   -3.1489    0.0000 C.2     1  UNL1       -0.0839
     17 C           7.7820    0.6478    0.0000 C.3     1  UNL1       -0.0224
     18 C           2.9396   -3.7056    0.0000 C.3     1  UNL1       -0.0494
     19 C           3.8908   -1.1143    0.0000 C.3     1  UNL1       -0.0588
     20 C           2.0084   -2.0781    0.0000 C.3     1  UNL1       -0.0525
     21 C           2.0000   -3.1631    0.0000 C.3     1  UNL1       -0.0528
     22 C           7.1142    1.3921    0.0000 C.3     1  UNL1       -0.0587
     23 C           8.7605    0.8540    0.0000 C.2     1  UNL1       -0.0845
     24 C           9.0712    1.8046    0.0000 C.2     1  UNL1       -0.0843
     25 C          10.0497    2.0108    0.0000 C.3     1  UNL1       -0.0185
     26 C          10.3604    2.9613    0.0000 C.3     1  UNL1       -0.0404
     27 C          10.7175    1.2665    0.0000 C.3     1  UNL1       -0.0232
     28 C          11.3389    3.1675    0.0000 C.3     1  UNL1       -0.0621
     29 C           9.6925    3.7056    0.0000 C.3     1  UNL1       -0.0621
     30 C          11.6960    1.4727    0.0000 C.3     1  UNL1        0.0447
     31 H           6.6151   -2.4527    0.0000 H       1  UNL1        0.0351
     32 H           5.5292   -1.1824    0.0000 H       1  UNL1        0.0351
     33 H           8.3111   -0.1708    0.0000 H       1  UNL1        0.0312
     34 H           6.0576    0.3675    0.0000 H       1  UNL1        0.0271
     35 H           5.2606    0.3675    0.0000 H       1  UNL1        0.0271
     36 H           4.5810   -0.0248    0.0000 H       1  UNL1        0.0271
     37 H           4.1825   -0.7151    0.0000 H       1  UNL1        0.0271
     38 H           3.8774   -3.7759    0.0000 H       1  UNL1        0.0309
     39 H           7.2203   -2.4791    0.0000 H       1  UNL1        0.0271
     40 H           8.0087   -2.2214    0.0000 H       1  UNL1        0.0271
     41 H           8.5158   -1.5222    0.0000 H       1  UNL1        0.0268
     42 H           8.5158   -0.6927    0.0000 H       1  UNL1        0.0268
     43 H           3.3645   -1.0835    0.0000 H       1  UNL1        0.0271
     44 H           2.5663   -1.0682    0.0000 H       1  UNL1        0.0271
     45 H           4.3798   -4.1527    0.0000 H       1  UNL1        0.0310
     46 H           5.1781   -4.1496    0.0000 H       1  UNL1        0.0310
     47 H           7.1451    0.3926    0.0000 H       1  UNL1        0.0235
     48 H           6.5251    1.0126    0.0000 H       1  UNL1        0.0235
     49 H           5.9051    0.3926    0.0000 H       1  UNL1        0.0235
     50 H           6.2157   -3.4527    0.0000 H       1  UNL1        0.0572
     51 H           7.9746    1.2371    0.0000 H       1  UNL1        0.0343
     52 H           2.5423   -4.1816    0.0000 H       1  UNL1        0.0268
     53 H           3.3406   -4.1785    0.0000 H       1  UNL1        0.0268
     54 H           4.5108   -1.1191    0.0000 H       1  UNL1        0.0235
     55 H           3.8956   -0.4943    0.0000 H       1  UNL1        0.0235
     56 H           3.2708   -1.1095    0.0000 H       1  UNL1        0.0235
     57 H           1.8038   -1.4929    0.0000 H       1  UNL1        0.0265
     58 H           1.3967   -2.1795    0.0000 H       1  UNL1        0.0265
     59 H           1.3900   -3.0523    0.0000 H       1  UNL1        0.0265
     60 H           1.7864   -3.7452    0.0000 H       1  UNL1        0.0265
     61 H           7.5756    1.8062    0.0000 H       1  UNL1        0.0235
     62 H           6.7001    1.8536    0.0000 H       1  UNL1        0.0235
     63 H           6.6527    0.9781    0.0000 H       1  UNL1        0.0235
     64 H           9.1746    0.3926    0.0000 H       1  UNL1        0.0572
     65 H           8.6571    2.2660    0.0000 H       1  UNL1        0.0572
     66 H           9.8571    1.4215    0.0000 H       1  UNL1        0.0346
     67 H          10.5530    3.5506    0.0000 H       1  UNL1        0.0301
     68 H          10.1912    0.9388    0.0000 H       1  UNL1        0.0293
     69 H          10.9488    0.6912    0.0000 H       1  UNL1        0.0293
     70 H          11.4667    2.5608    0.0000 H       1  UNL1        0.0233
     71 H          11.9455    3.2954    0.0000 H       1  UNL1        0.0233
     72 H          11.2110    3.7742    0.0000 H       1  UNL1        0.0233
     73 H          10.1540    4.1197    0.0000 H       1  UNL1        0.0233
     74 H           9.2784    4.1671    0.0000 H       1  UNL1        0.0233
     75 H           9.2310    3.2915    0.0000 H       1  UNL1        0.0233
     76 H          12.2224    1.8003    0.0000 H       1  UNL1        0.0557
     77 H          11.4648    2.0480    0.0000 H       1  UNL1        0.0557
     78 H          12.9706    0.8563    0.0000 H       1  UNL1        0.2094
@<TRIPOS>BOND
     1     1    30    1
     2     1    78    1
     3     2     3    1
     4     2     6    1
     5     2     8    1
     6     2    15    1
     7     3     7    1
     8     3    11    1
     9     3    31    1
    10     4     5    1
    11     4     7    1
    12     4     9    1
    13     4    32    1
    14     5    10    1
    15     5    13    1
    16     5    19    1
    17     6    12    1
    18     6    17    1
    19     6    33    1
    20     7    16    2
    21     8     9    1
    22     8    34    1
    23     8    35    1
    24     9    36    1
    25     9    37    1
    26    10    14    1
    27    10    18    1
    28    10    38    1
    29    11    12    1
    30    11    39    1
    31    11    40    1
    32    12    41    1
    33    12    42    1
    34    13    20    1
    35    13    43    1
    36    13    44    1
    37    14    16    1
    38    14    45    1
    39    14    46    1
    40    15    47    1
    41    15    48    1
    42    15    49    1
    43    16    50    1
    44    17    22    1
    45    17    23    1
    46    17    51    1
    47    18    21    1
    48    18    52    1
    49    18    53    1
    50    19    54    1
    51    19    55    1
    52    19    56    1
    53    20    21    1
    54    20    57    1
    55    20    58    1
    56    21    59    1
    57    21    60    1
    58    22    61    1
    59    22    62    1
    60    22    63    1
    61    23    24    2
    62    23    64    1
    63    24    25    1
    64    24    65    1
    65    25    26    1
    66    25    27    1
    67    25    66    1
    68    26    28    1
    69    26    29    1
    70    26    67    1
    71    27    30    1
    72    27    68    1
    73    27    69    1
    74    28    70    1
    75    28    71    1
    76    28    72    1
    77    29    73    1
    78    29    74    1
    79    29    75    1
    80    30    76    1
    81    30    77    1
