@<TRIPOS>MOLECULE
IMPHY002434
 39 41 0 0 0
SMALL
GASTEIGER

@<TRIPOS>ATOM
      1 C           4.6660   -0.5668    0.0000 C.3     1  UNL1       -0.0104
      2 C           5.5321   -0.0668    0.0000 C.3     1  UNL1       -0.0283
      3 C           5.5323   -1.0672    0.0000 C.3     1  UNL1       -0.0247
      4 C           3.8000   -0.0668    0.0000 C.2     1  UNL1       -0.0608
      5 C           3.8000    0.9332    0.0000 C.3     1  UNL1       -0.0105
      6 C           5.5321    0.9332    0.0000 C.3     1  UNL1       -0.0484
      7 C           4.6660    1.4332    0.0000 C.3     1  UNL1       -0.0436
      8 C           6.5323   -1.0672    0.0000 C.3     1  UNL1       -0.0590
      9 C           5.0323   -1.9332    0.0000 C.3     1  UNL1       -0.0590
     10 C           2.9061    1.4679    0.0000 C.3     1  UNL1       -0.0436
     11 C           2.9061   -0.6014    0.0000 C.2     1  UNL1       -0.0726
     12 C           3.8000    1.9332    0.0000 C.3     1  UNL1       -0.0558
     13 C           2.0000    0.9540    0.0000 C.3     1  UNL1       -0.0486
     14 C           2.0000   -0.0876    0.0000 C.3     1  UNL1       -0.0317
     15 C           2.9176   -1.6014    0.0000 C.3     1  UNL1       -0.0435
     16 H           4.2409   -1.3028    0.0000 H       1  UNL1        0.0354
     17 H           6.3821   -0.0667    0.0000 H       1  UNL1        0.0312
     18 H           6.1426    0.8256    0.0000 H       1  UNL1        0.0269
     19 H           5.7441    1.5158    0.0000 H       1  UNL1        0.0269
     20 H           5.0646    1.9082    0.0000 H       1  UNL1        0.0274
     21 H           4.2675    1.9082    0.0000 H       1  UNL1        0.0274
     22 H           6.5323   -1.6872    0.0000 H       1  UNL1        0.0235
     23 H           7.1523   -1.0672    0.0000 H       1  UNL1        0.0235
     24 H           6.5323   -0.4472    0.0000 H       1  UNL1        0.0235
     25 H           4.4954   -1.6232    0.0000 H       1  UNL1        0.0235
     26 H           4.7223   -2.4702    0.0000 H       1  UNL1        0.0235
     27 H           5.5692   -2.2432    0.0000 H       1  UNL1        0.0235
     28 H           3.3107    1.9377    0.0000 H       1  UNL1        0.0274
     29 H           2.5124    1.9469    0.0000 H       1  UNL1        0.0274
     30 H           4.4200    1.9332    0.0000 H       1  UNL1        0.0238
     31 H           3.8000    2.5532    0.0000 H       1  UNL1        0.0238
     32 H           3.1800    1.9332    0.0000 H       1  UNL1        0.0238
     33 H           1.7909    1.5377    0.0000 H       1  UNL1        0.0269
     34 H           1.3891    0.8480    0.0000 H       1  UNL1        0.0269
     35 H           1.3891    0.0185    0.0000 H       1  UNL1        0.0310
     36 H           1.7909   -0.6713    0.0000 H       1  UNL1        0.0310
     37 H           2.2977   -1.6085    0.0000 H       1  UNL1        0.0274
     38 H           2.9248   -2.2213    0.0000 H       1  UNL1        0.0274
     39 H           3.5376   -1.5942    0.0000 H       1  UNL1        0.0274
@<TRIPOS>BOND
     1     1     2    1
     2     1     3    1
     3     1     4    1
     4     1    16    1
     5     2     3    1
     6     2     6    1
     7     2    17    1
     8     3     8    1
     9     3     9    1
    10     4     5    1
    11     4    11    2
    12     5     7    1
    13     5    10    1
    14     5    12    1
    15     6     7    1
    16     6    18    1
    17     6    19    1
    18     7    20    1
    19     7    21    1
    20     8    22    1
    21     8    23    1
    22     8    24    1
    23     9    25    1
    24     9    26    1
    25     9    27    1
    26    10    13    1
    27    10    28    1
    28    10    29    1
    29    11    14    1
    30    11    15    1
    31    12    30    1
    32    12    31    1
    33    12    32    1
    34    13    14    1
    35    13    33    1
    36    13    34    1
    37    14    35    1
    38    14    36    1
    39    15    37    1
    40    15    38    1
    41    15    39    1
