@<TRIPOS>MOLECULE
IMPHY000730
 36 38 0 0 0
SMALL
GASTEIGER

@<TRIPOS>ATOM
      1 O           4.9994   -1.1048    0.0000 O.3     1  UNL1       -0.3798
      2 O           5.7812   -0.8605    0.0000 O.2     1  UNL1       -0.2888
      3 O           5.1482    2.3480    0.0000 O.2     1  UNL1       -0.4665
      4 C           4.0984   -0.6709    0.0000 C.3     1  UNL1        0.1371
      5 C           3.1974   -0.2370    0.0000 C.3     1  UNL1        0.0166
      6 C           3.9624   -1.6556    0.0000 C.3     1  UNL1       -0.0071
      7 C           2.5124   -0.9573    0.0000 C.3     1  UNL1       -0.0431
      8 C           2.9842   -1.8323    0.0000 C.3     1  UNL1       -0.0468
      9 C           2.9749    0.7379    0.0000 C.2     1  UNL1       -0.0631
     10 C           4.9994   -0.2370    0.0000 C.2     1  UNL1        0.1988
     11 C           4.6840   -2.3480    0.0000 C.3     1  UNL1       -0.0594
     12 C           3.5984    1.5197    0.0000 C.3     1  UNL1        0.0275
     13 C           5.2219    0.7379    0.0000 C.ar    1  UNL1        0.0644
     14 C           4.5984    1.5197    0.0000 C.ar    1  UNL1        0.1196
     15 C           2.0000    0.9604    0.0000 C.2     1  UNL1       -0.0987
     16 C           6.1517    1.0896    0.0000 C.ar    1  UNL1       -0.0019
     17 C           6.1062    2.0827    0.0000 C.ar    1  UNL1        0.0957
     18 C           6.9872    0.5402    0.0000 C.3     1  UNL1       -0.0360
     19 H           2.3778   -0.0120    0.0000 H       1  UNL1        0.0378
     20 H           3.7833   -2.2492    0.0000 H       1  UNL1        0.0330
     21 H           2.1105   -0.4852    0.0000 H       1  UNL1        0.0272
     22 H           2.0006   -1.3073    0.0000 H       1  UNL1        0.0272
     23 H           2.4105   -2.0676    0.0000 H       1  UNL1        0.0269
     24 H           3.1579   -2.4275    0.0000 H       1  UNL1        0.0269
     25 H           4.2548   -2.7953    0.0000 H       1  UNL1        0.0233
     26 H           5.1314   -2.7772    0.0000 H       1  UNL1        0.0233
     27 H           5.1132   -1.9006    0.0000 H       1  UNL1        0.0233
     28 H           3.7364    2.1242    0.0000 H       1  UNL1        0.0389
     29 H           3.0398    1.7888    0.0000 H       1  UNL1        0.0389
     30 H           5.0457   -1.7230    0.0000 H       1  UNL1        0.2108
     31 H           1.8172    1.5529    0.0000 H       1  UNL1        0.0535
     32 H           1.5783    0.5059    0.0000 H       1  UNL1        0.0535
     33 H           6.5910    2.4692    0.0000 H       1  UNL1        0.1032
     34 H           6.6466    0.0221    0.0000 H       1  UNL1        0.0279
     35 H           7.5052    0.1995    0.0000 H       1  UNL1        0.0279
     36 H           7.3279    1.0582    0.0000 H       1  UNL1        0.0279
@<TRIPOS>BOND
     1     4     1    1
     2     1    30    1
     3     2    10    2
     4     3    14   ar
     5     3    17   ar
     6     4     5    1
     7     4     6    1
     8     4    10    1
     9     5     7    1
    10     5     9    1
    11     5    19    1
    12     6     8    1
    13     6    11    1
    14     6    20    1
    15     7     8    1
    16     7    21    1
    17     7    22    1
    18     8    23    1
    19     8    24    1
    20     9    12    1
    21     9    15    2
    22    10    13    1
    23    11    25    1
    24    11    26    1
    25    11    27    1
    26    12    14    1
    27    12    28    1
    28    12    29    1
    29    13    14   ar
    30    13    16   ar
    31    15    31    1
    32    15    32    1
    33    16    17   ar
    34    16    18    1
    35    17    33    1
    36    18    34    1
    37    18    35    1
    38    18    36    1
