@<TRIPOS>MOLECULE
IMPHY011124
 24 24 0 0 0
SMALL
GASTEIGER

@<TRIPOS>ATOM
      1 O           3.7320   -1.9330    0.0000 O.2     1  UNL1       -0.2924
      2 C           3.7320    1.0670    0.0000 C.3     1  UNL1       -0.0158
      3 C           2.8660    0.5670    0.0000 C.3     1  UNL1       -0.0348
      4 C           2.8660   -0.4330    0.0000 C.3     1  UNL1        0.0195
      5 C           4.5981    0.5670    0.0000 C.2     1  UNL1       -0.0750
      6 C           4.2320    1.9330    0.0000 C.3     1  UNL1       -0.0563
      7 C           3.2320    1.9330    0.0000 C.3     1  UNL1       -0.0563
      8 C           3.7320   -0.9330    0.0000 C.2     1  UNL1        0.1586
      9 C           2.0000   -0.9330    0.0000 C.3     1  UNL1       -0.0554
     10 C           4.5981   -0.4330    0.0000 C.2     1  UNL1       -0.0224
     11 H           2.6540    1.1496    0.0000 H       1  UNL1        0.0280
     12 H           2.2554    0.4593    0.0000 H       1  UNL1        0.0280
     13 H           2.8660   -1.0530    0.0000 H       1  UNL1        0.0378
     14 H           5.1350    0.8770    0.0000 H       1  UNL1        0.0578
     15 H           4.7690    1.6230    0.0000 H       1  UNL1        0.0238
     16 H           4.5420    2.4700    0.0000 H       1  UNL1        0.0238
     17 H           3.7690    2.2430    0.0000 H       1  UNL1        0.0238
     18 H           2.9220    2.4700    0.0000 H       1  UNL1        0.0238
     19 H           2.6951    1.6230    0.0000 H       1  UNL1        0.0238
     20 H           3.6951    2.2430    0.0000 H       1  UNL1        0.0238
     21 H           1.6900   -0.3961    0.0000 H       1  UNL1        0.0237
     22 H           1.4631   -1.2430    0.0000 H       1  UNL1        0.0237
     23 H           2.3100   -1.4700    0.0000 H       1  UNL1        0.0237
     24 H           5.1350   -0.7430    0.0000 H       1  UNL1        0.0649
@<TRIPOS>BOND
     1     1     8    2
     2     2     3    1
     3     2     5    1
     4     2     6    1
     5     2     7    1
     6     3     4    1
     7     3    11    1
     8     3    12    1
     9     4     8    1
    10     4     9    1
    11     4    13    1
    12     5    10    2
    13     5    14    1
    14     6    15    1
    15     6    16    1
    16     6    20    1
    17     7    17    1
    18     7    18    1
    19     7    19    1
    20     8    10    1
    21     9    21    1
    22     9    22    1
    23     9    23    1
    24    10    24    1
