@<TRIPOS>MOLECULE
IMPHY003523
 36 37 0 0 0
SMALL
GASTEIGER

@<TRIPOS>ATOM
      1 O           7.2566    1.7809    0.0000 O.3     1  UNL1       -0.4668
      2 O           5.6103    2.3190    0.0000 O.2     1  UNL1       -0.2491
      3 N           6.6353   -0.1202    0.0000 N.3     1  UNL1       -0.2958
      4 N           4.6783   -2.1421    0.0000 N.ar    1  UNL1       -0.3604
      5 C           5.9674    0.6241    0.0000 C.3     1  UNL1        0.1119
      6 C           4.9889    0.4179    0.0000 C.3     1  UNL1        0.0003
      7 C           4.6783   -0.5326    0.0000 C.ar    1  UNL1       -0.0203
      8 C           3.7320   -0.8373    0.0000 C.ar    1  UNL1        0.0029
      9 C           3.7320   -1.8373    0.0000 C.ar    1  UNL1        0.0467
     10 C           5.2619   -1.3373    0.0000 C.ar    1  UNL1        0.0060
     11 C           6.2781    1.5747    0.0000 C.2     1  UNL1        0.3246
     12 C           2.8660   -0.3373    0.0000 C.ar    1  UNL1       -0.0523
     13 C           7.6138    0.0861    0.0000 C.3     1  UNL1       -0.0123
     14 C           6.3246   -1.0707    0.0000 C.3     1  UNL1       -0.0123
     15 C           2.8660   -2.3373    0.0000 C.ar    1  UNL1       -0.0378
     16 C           2.0000   -0.8373    0.0000 C.ar    1  UNL1       -0.0611
     17 C           2.0000   -1.8373    0.0000 C.ar    1  UNL1       -0.0598
     18 C           7.5673    2.7314    0.0000 C.3     1  UNL1        0.0817
     19 H           5.7748    0.0348    0.0000 H       1  UNL1        0.0581
     20 H           4.9684    1.0376    0.0000 H       1  UNL1        0.0334
     21 H           4.3751    0.5053    0.0000 H       1  UNL1        0.0334
     22 H           5.8819   -1.3373    0.0000 H       1  UNL1        0.0810
     23 H           4.8709   -2.7314    0.0000 H       1  UNL1        0.1653
     24 H           2.8660    0.2827    0.0000 H       1  UNL1        0.0624
     25 H           7.7416   -0.5206    0.0000 H       1  UNL1        0.0391
     26 H           8.2205    0.2139    0.0000 H       1  UNL1        0.0391
     27 H           7.4859    0.6927    0.0000 H       1  UNL1        0.0391
     28 H           5.7353   -0.8781    0.0000 H       1  UNL1        0.0391
     29 H           6.1320   -1.6600    0.0000 H       1  UNL1        0.0391
     30 H           6.9139   -1.2633    0.0000 H       1  UNL1        0.0391
     31 H           2.8660   -2.9573    0.0000 H       1  UNL1        0.0638
     32 H           1.4631   -0.5273    0.0000 H       1  UNL1        0.0618
     33 H           1.4631   -2.1473    0.0000 H       1  UNL1        0.0618
     34 H           8.1566    2.5388    0.0000 H       1  UNL1        0.0661
     35 H           7.7599    3.3207    0.0000 H       1  UNL1        0.0661
     36 H           6.9780    2.9240    0.0000 H       1  UNL1        0.0661
@<TRIPOS>BOND
     1     1    11    1
     2     1    18    1
     3     2    11    2
     4     3     5    1
     5     3    13    1
     6     3    14    1
     7     4     9   ar
     8     4    10   ar
     9     4    23    1
    10     5     6    1
    11     5    11    1
    12     5    19    1
    13     6     7    1
    14     6    20    1
    15     6    21    1
    16     7     8   ar
    17     7    10   ar
    18     8     9   ar
    19     8    12   ar
    20     9    15   ar
    21    10    22    1
    22    12    16   ar
    23    12    24    1
    24    13    25    1
    25    13    26    1
    26    13    27    1
    27    14    28    1
    28    14    29    1
    29    14    30    1
    30    15    17   ar
    31    15    31    1
    32    16    17   ar
    33    16    32    1
    34    17    33    1
    35    18    34    1
    36    18    35    1
    37    18    36    1
