@<TRIPOS>MOLECULE
IMPHY015244
 25 25 0 0 0
SMALL
GASTEIGER

@<TRIPOS>ATOM
      1 O           3.7320    1.3450    0.0000 O.3     1  UNL1       -0.3913
      2 C           2.8660   -0.1550    0.0000 C.3     1  UNL1       -0.0175
      3 C           4.5981   -0.1550    0.0000 C.3     1  UNL1       -0.0175
      4 C           3.7320    0.3450    0.0000 C.3     1  UNL1        0.0604
      5 C           2.8660   -1.1550    0.0000 C.3     1  UNL1       -0.0481
      6 C           4.5981   -1.1550    0.0000 C.3     1  UNL1       -0.0481
      7 C           3.7320   -1.6550    0.0000 C.3     1  UNL1       -0.0524
      8 C           2.0000    0.3450    0.0000 C.3     1  UNL1       -0.0601
      9 C           5.4641    0.3450    0.0000 C.3     1  UNL1       -0.0601
     10 H           2.8660    0.4650    0.0000 H       1  UNL1        0.0323
     11 H           5.1350   -0.4650    0.0000 H       1  UNL1        0.0323
     12 H           4.2690    0.6550    0.0000 H       1  UNL1        0.0598
     13 H           2.2554   -1.0473    0.0000 H       1  UNL1        0.0269
     14 H           2.6540   -1.7376    0.0000 H       1  UNL1        0.0269
     15 H           4.8101   -1.7376    0.0000 H       1  UNL1        0.0269
     16 H           5.2087   -1.0473    0.0000 H       1  UNL1        0.0269
     17 H           3.3335   -2.1300    0.0000 H       1  UNL1        0.0265
     18 H           4.1306   -2.1300    0.0000 H       1  UNL1        0.0265
     19 H           2.3100    0.8819    0.0000 H       1  UNL1        0.0233
     20 H           1.4631    0.6550    0.0000 H       1  UNL1        0.0233
     21 H           1.6900   -0.1919    0.0000 H       1  UNL1        0.0233
     22 H           5.7741   -0.1919    0.0000 H       1  UNL1        0.0233
     23 H           6.0010    0.6550    0.0000 H       1  UNL1        0.0233
     24 H           5.1541    0.8819    0.0000 H       1  UNL1        0.0233
     25 H           4.2690    1.6550    0.0000 H       1  UNL1        0.2098
@<TRIPOS>BOND
     1     1     4    1
     2     1    25    1
     3     2     4    1
     4     2     5    1
     5     2     8    1
     6     2    10    1
     7     3     4    1
     8     3     6    1
     9     3     9    1
    10     3    11    1
    11     4    12    1
    12     5     7    1
    13     5    13    1
    14     5    14    1
    15     6     7    1
    16     6    15    1
    17     6    16    1
    18     7    17    1
    19     7    18    1
    20     8    19    1
    21     8    20    1
    22     8    21    1
    23     9    22    1
    24     9    23    1
    25     9    24    1
