@<TRIPOS>MOLECULE
IMPHY013600
 79 85 0 0 0
SMALL
GASTEIGER

@<TRIPOS>ATOM
      1 O           2.1497   -0.1253    0.0000 O.3     1  UNL1       -0.3595
      2 O           4.9785   -4.4384    0.0000 O.3     1  UNL1       -0.3454
      3 O           7.4408   -4.6696    0.0000 O.3     1  UNL1       -0.3627
      4 O           3.1999   -4.3284    0.0000 O.3     1  UNL1       -0.3667
      5 O           3.8941    4.9444    0.0000 O.2     1  UNL1       -0.2968
      6 C           3.0160    0.3751    0.0000 C.3     1  UNL1        0.1233
      7 C           2.9999   -0.6664    0.0000 C.3     1  UNL1        0.0092
      8 C           3.8980   -1.1942    0.0000 C.3     1  UNL1       -0.0170
      9 C           2.1500    0.8751    0.0000 C.3     1  UNL1        0.0935
     10 C           3.8820    0.8751    0.0000 C.2     1  UNL1       -0.0328
     11 C           3.6723   -2.2047    0.0000 C.3     1  UNL1       -0.0272
     12 C           3.8820    1.8751    0.0000 C.3     1  UNL1       -0.0041
     13 C           2.2269   -1.3553    0.0000 C.3     1  UNL1       -0.0438
     14 C           3.0160    2.3751    0.0000 C.3     1  UNL1       -0.0176
     15 C           2.1500    1.8751    0.0000 C.3     1  UNL1       -0.0190
     16 C           2.6416   -2.3041    0.0000 C.3     1  UNL1       -0.0487
     17 C           4.8000   -0.6733    0.0000 C.3     1  UNL1       -0.0281
     18 C           2.0138   -0.8325    0.0000 C.3     1  UNL1       -0.0560
     19 C           4.7920    0.3683    0.0000 C.2     1  UNL1       -0.0809
     20 C           4.3344   -2.9542    0.0000 C.3     1  UNL1        0.0157
     21 C           4.7601   -1.7008    0.0000 C.3     1  UNL1       -0.0584
     22 C           2.9999    3.4166    0.0000 C.3     1  UNL1        0.0271
     23 C           4.7920    2.3819    0.0000 C.3     1  UNL1       -0.0368
     24 C           4.7480    1.3751    0.0000 C.3     1  UNL1       -0.0555
     25 C           5.3298   -2.8590    0.0000 C.3     1  UNL1       -0.0163
     26 C           4.8000    3.4236    0.0000 C.3     1  UNL1        0.0072
     27 C           4.1172   -3.9303    0.0000 C.3     1  UNL1        0.1598
     28 C           3.8980    3.9444    0.0000 C.2     1  UNL1        0.1392
     29 C           5.7279   -3.7764    0.0000 C.3     1  UNL1        0.0909
     30 C           2.4900    4.2768    0.0000 C.3     1  UNL1       -0.0528
     31 C           2.0000    3.4050    0.0000 C.3     1  UNL1       -0.0528
     32 C           6.7040   -3.9935    0.0000 C.3     1  UNL1        0.1139
     33 C           7.6580   -3.6935    0.0000 C.3     1  UNL1        0.0930
     34 C           8.6341   -3.9106    0.0000 C.3     1  UNL1       -0.0335
     35 C           7.3580   -2.7395    0.0000 C.3     1  UNL1       -0.0335
     36 H           1.3000    0.8752    0.0000 H       1  UNL1        0.0629
     37 H           3.3605   -2.9955    0.0000 H       1  UNL1        0.0311
     38 H           1.8653   -0.8517    0.0000 H       1  UNL1        0.0272
     39 H           1.6880   -1.6620    0.0000 H       1  UNL1        0.0272
     40 H           2.2766    2.7944    0.0000 H       1  UNL1        0.0319
     41 H           1.9379    2.4577    0.0000 H       1  UNL1        0.0294
     42 H           1.5394    1.7674    0.0000 H       1  UNL1        0.0294
     43 H           2.0505   -2.4913    0.0000 H       1  UNL1        0.0268
     44 H           2.7656   -2.9116    0.0000 H       1  UNL1        0.0268
     45 H           5.0136   -1.2554    0.0000 H       1  UNL1        0.0313
     46 H           5.4101   -0.5625    0.0000 H       1  UNL1        0.0313
     47 H           1.9109   -0.2211    0.0000 H       1  UNL1        0.0236
     48 H           1.4024   -0.9354    0.0000 H       1  UNL1        0.0236
     49 H           2.1168   -1.4438    0.0000 H       1  UNL1        0.0236
     50 H           5.3253    0.6844    0.0000 H       1  UNL1        0.0573
     51 H           4.6464   -2.1635    0.0000 H       1  UNL1        0.0353
     52 H           4.4460   -2.2354    0.0000 H       1  UNL1        0.0235
     53 H           5.2946   -2.0149    0.0000 H       1  UNL1        0.0235
     54 H           5.0742   -1.1663    0.0000 H       1  UNL1        0.0235
     55 H           4.9966    1.7967    0.0000 H       1  UNL1        0.0278
     56 H           5.4037    2.4833    0.0000 H       1  UNL1        0.0278
     57 H           4.4380    0.8382    0.0000 H       1  UNL1        0.0238
     58 H           5.2850    1.0651    0.0000 H       1  UNL1        0.0238
     59 H           5.0580    1.9120    0.0000 H       1  UNL1        0.0238
     60 H           5.9212   -2.6730    0.0000 H       1  UNL1        0.0295
     61 H           5.2066   -2.2514    0.0000 H       1  UNL1        0.0295
     62 H           5.4101    3.3128    0.0000 H       1  UNL1        0.0342
     63 H           5.0136    4.0056    0.0000 H       1  UNL1        0.0342
     64 H           4.0789   -4.5491    0.0000 H       1  UNL1        0.0910
     65 H           5.9401   -4.5994    0.0000 H       1  UNL1        0.0624
     66 H           3.0233    4.5930    0.0000 H       1  UNL1        0.0239
     67 H           2.1738    4.8101    0.0000 H       1  UNL1        0.0239
     68 H           1.9566    3.9606    0.0000 H       1  UNL1        0.0239
     69 H           1.9928    4.0250    0.0000 H       1  UNL1        0.0239
     70 H           1.3800    3.3979    0.0000 H       1  UNL1        0.0239
     71 H           2.0072    2.7851    0.0000 H       1  UNL1        0.0239
     72 H           6.6676   -3.1443    0.0000 H       1  UNL1        0.0651
     73 H           3.1292   -4.9444    0.0000 H       1  UNL1        0.2125
     74 H           8.4995   -4.5158    0.0000 H       1  UNL1        0.0258
     75 H           9.2393   -4.0452    0.0000 H       1  UNL1        0.0258
     76 H           8.7687   -3.3054    0.0000 H       1  UNL1        0.0258
     77 H           7.9494   -2.5535    0.0000 H       1  UNL1        0.0258
     78 H           7.1719   -2.1481    0.0000 H       1  UNL1        0.0258
     79 H           6.7665   -2.9256    0.0000 H       1  UNL1        0.0258
@<TRIPOS>BOND
     1     6     1    1
     2     1     9    1
     3     2    27    1
     4     2    29    1
     5     3    32    1
     6     3    33    1
     7     4    27    1
     8     4    73    1
     9     5    28    2
    10     6     7    1
    11     6     9    1
    12     6    10    1
    13     7     8    1
    14     7    13    1
    15     7    18    1
    16     8    11    1
    17     8    17    1
    18     8    21    1
    19     9    15    1
    20     9    36    1
    21    10    12    1
    22    10    19    2
    23    11    16    1
    24    11    20    1
    25    11    37    1
    26    12    14    1
    27    12    23    1
    28    12    24    1
    29    13    16    1
    30    13    38    1
    31    13    39    1
    32    14    15    1
    33    14    22    1
    34    14    40    1
    35    15    41    1
    36    15    42    1
    37    16    43    1
    38    16    44    1
    39    17    19    1
    40    17    45    1
    41    17    46    1
    42    18    47    1
    43    18    48    1
    44    18    49    1
    45    19    50    1
    46    20    25    1
    47    20    27    1
    48    20    51    1
    49    21    52    1
    50    21    53    1
    51    21    54    1
    52    22    28    1
    53    22    30    1
    54    22    31    1
    55    23    26    1
    56    23    55    1
    57    23    56    1
    58    24    57    1
    59    24    58    1
    60    24    59    1
    61    25    29    1
    62    25    60    1
    63    25    61    1
    64    26    28    1
    65    26    62    1
    66    26    63    1
    67    27    64    1
    68    29    32    1
    69    29    65    1
    70    30    66    1
    71    30    67    1
    72    30    68    1
    73    31    69    1
    74    31    70    1
    75    31    71    1
    76    32    33    1
    77    32    72    1
    78    33    34    1
    79    33    35    1
    80    34    74    1
    81    34    75    1
    82    34    76    1
    83    35    77    1
    84    35    78    1
    85    35    79    1
