@<TRIPOS>MOLECULE
IMPHY009381
 17 17 0 0 0
SMALL
GASTEIGER

@<TRIPOS>ATOM
      1 S           2.4608   -0.1643    0.0000 S.3     1  UNL1       -0.1738
      2 S           4.2208    1.1144    0.0000 S.3     1  UNL1       -0.1738
      3 C           4.2208    0.1144    0.0000 C.3     1  UNL1        0.0139
      4 C           3.4118   -0.4734    0.0000 C.3     1  UNL1        0.0139
      5 C           3.7208   -1.4244    0.0000 C.3     1  UNL1       -0.0403
      6 C           5.0298   -0.4734    0.0000 C.3     1  UNL1       -0.0403
      7 C           4.7208   -1.4244    0.0000 C.3     1  UNL1       -0.0510
      8 H           3.4635    0.5003    0.0000 H       1  UNL1        0.0420
      9 H           3.2788    0.3662    0.0000 H       1  UNL1        0.0420
     10 H           5.5962   -0.7255    0.0000 H       1  UNL1        0.0276
     11 H           3.1144   -1.5533    0.0000 H       1  UNL1        0.0276
     12 H           3.7856   -2.0410    0.0000 H       1  UNL1        0.0276
     13 H           5.3398    0.0636    0.0000 H       1  UNL1        0.0276
     14 H           4.6560   -2.0410    0.0000 H       1  UNL1        0.0266
     15 H           5.3273   -1.5533    0.0000 H       1  UNL1        0.0266
     16 H           4.7578    1.4244    0.0000 H       1  UNL1        0.1019
     17 H           2.0000   -0.5792    0.0000 H       1  UNL1        0.1019
@<TRIPOS>BOND
     1     1     4    1
     2     1    17    1
     3     2     3    1
     4     2    16    1
     5     3     4    1
     6     3     6    1
     7     3     8    1
     8     4     5    1
     9     4     9    1
    10     5     7    1
    11     5    11    1
    12     5    12    1
    13     6     7    1
    14     6    10    1
    15     6    13    1
    16     7    14    1
    17     7    15    1
