@<TRIPOS>MOLECULE
IMPHY004740
 50 53 0 0 0
SMALL
GASTEIGER

@<TRIPOS>ATOM
      1 O           4.2690   -1.3659    0.0000 O.3     1  UNL1       -0.3339
      2 O           6.0010   -1.3659    0.0000 O.3     1  UNL1       -0.4569
      3 O           4.2690   -4.3659    0.0000 O.3     1  UNL1       -0.3864
      4 O           2.5369   -3.3659    0.0000 O.3     1  UNL1       -0.3866
      5 O           6.0010   -3.3659    0.0000 O.3     1  UNL1       -0.3829
      6 O           7.7771    1.6410    0.0000 O.2     1  UNL1       -0.4544
      7 O           4.2690   -0.3659    0.0000 O.3     1  UNL1       -0.5009
      8 O           4.2690    1.6341    0.0000 O.3     1  UNL1       -0.5027
      9 O           5.1132    3.1656    0.0000 O.2     1  UNL1       -0.2869
     10 C           4.2690   -3.3659    0.0000 C.3     1  UNL1        0.1151
     11 C           3.4030   -2.8659    0.0000 C.3     1  UNL1        0.1096
     12 C           5.1350   -2.8659    0.0000 C.3     1  UNL1        0.1454
     13 C           3.4030   -1.8659    0.0000 C.3     1  UNL1        0.0883
     14 C           5.1350   -1.8659    0.0000 C.3     1  UNL1        0.2309
     15 C           2.5369   -1.3659    0.0000 C.3     1  UNL1       -0.0360
     16 C           6.0010   -0.3659    0.0000 C.ar    1  UNL1        0.1724
     17 C           6.8671    0.1341    0.0000 C.ar    1  UNL1        0.0271
     18 C           5.1350    0.1341    0.0000 C.ar    1  UNL1        0.2019
     19 C           6.8671    1.1341    0.0000 C.ar    1  UNL1        0.1465
     20 C           6.0010    1.6341    0.0000 C.ar    1  UNL1        0.1091
     21 C           5.1350    1.1341    0.0000 C.ar    1  UNL1        0.1766
     22 C           5.9850    2.6756    0.0000 C.ar    1  UNL1        0.1967
     23 C           7.7851    2.6826    0.0000 C.ar    1  UNL1        0.1392
     24 C           6.8830    3.2034    0.0000 C.ar    1  UNL1        0.0288
     25 C           8.6530    3.1792    0.0000 C.ar    1  UNL1        0.0174
     26 C           9.5171    2.6759    0.0000 C.ar    1  UNL1       -0.0511
     27 C           8.6569    4.1792    0.0000 C.ar    1  UNL1       -0.0511
     28 C          10.3851    3.1726    0.0000 C.ar    1  UNL1       -0.0611
     29 C           9.5248    4.6759    0.0000 C.ar    1  UNL1       -0.0611
     30 C          10.3889    4.1725    0.0000 C.ar    1  UNL1       -0.0617
     31 H           4.8059   -3.6759    0.0000 H       1  UNL1        0.0648
     32 H           3.4030   -3.4859    0.0000 H       1  UNL1        0.0646
     33 H           5.6720   -2.5559    0.0000 H       1  UNL1        0.0683
     34 H           3.4030   -1.2459    0.0000 H       1  UNL1        0.0621
     35 H           5.1350   -1.2459    0.0000 H       1  UNL1        0.1084
     36 H           2.8469   -0.8289    0.0000 H       1  UNL1        0.0255
     37 H           2.0000   -1.0559    0.0000 H       1  UNL1        0.0255
     38 H           2.2269   -1.9028    0.0000 H       1  UNL1        0.0255
     39 H           3.7320   -4.6759    0.0000 H       1  UNL1        0.2100
     40 H           2.0000   -3.0559    0.0000 H       1  UNL1        0.2100
     41 H           6.0010   -3.9859    0.0000 H       1  UNL1        0.2102
     42 H           7.4040   -0.1759    0.0000 H       1  UNL1        0.0692
     43 H           6.8806    3.8234    0.0000 H       1  UNL1        0.0693
     44 H           3.7320   -0.0559    0.0000 H       1  UNL1        0.2924
     45 H           3.7320    1.3241    0.0000 H       1  UNL1        0.2923
     46 H           9.5147    2.0559    0.0000 H       1  UNL1        0.0625
     47 H           8.1212    4.4913    0.0000 H       1  UNL1        0.0625
     48 H          10.9208    2.8605    0.0000 H       1  UNL1        0.0618
     49 H           9.5272    5.2959    0.0000 H       1  UNL1        0.0618
     50 H          10.9271    4.4805    0.0000 H       1  UNL1        0.0618
@<TRIPOS>BOND
     1     1    13    1
     2     1    14    1
     3    14     2    1
     4     2    16    1
     5    10     3    1
     6     3    39    1
     7    11     4    1
     8     4    40    1
     9     5    12    1
    10     5    41    1
    11     6    19   ar
    12     6    23   ar
    13     7    18    1
    14     7    44    1
    15     8    21    1
    16     8    45    1
    17     9    22    2
    18    10    11    1
    19    10    12    1
    20    10    31    1
    21    11    13    1
    22    11    32    1
    23    12    14    1
    24    12    33    1
    25    13    15    1
    26    13    34    1
    27    14    35    1
    28    15    36    1
    29    15    37    1
    30    15    38    1
    31    16    17   ar
    32    16    18   ar
    33    17    19   ar
    34    17    42    1
    35    18    21   ar
    36    19    20   ar
    37    20    21   ar
    38    20    22   ar
    39    22    24   ar
    40    23    24   ar
    41    23    25    1
    42    24    43    1
    43    25    26   ar
    44    25    27   ar
    45    26    28   ar
    46    26    46    1
    47    27    29   ar
    48    27    47    1
    49    28    30   ar
    50    28    48    1
    51    29    30   ar
    52    29    49    1
    53    30    50    1
