@<TRIPOS>MOLECULE
IMPHY004479
 34 36 0 0 0
SMALL
GASTEIGER

@<TRIPOS>ATOM
      1 O           6.3981   -0.6154    0.0000 O.2     1  UNL1       -0.4507
      2 O           2.8680   -0.6395    0.0000 O.3     1  UNL1       -0.4949
      3 O           8.1301    1.3846    0.0000 O.3     1  UNL1       -0.5007
      4 O           4.6497    2.4192    0.0000 O.3     1  UNL1       -0.5058
      5 O           6.3981    2.3846    0.0000 O.2     1  UNL1       -0.2830
      6 O          10.7282   -2.1154    0.0000 O.3     1  UNL1       -0.5068
      7 C           5.5320    0.8846    0.0000 C.ar    1  UNL1        0.1092
      8 C           5.5320   -0.1154    0.0000 C.ar    1  UNL1        0.1465
      9 C           7.2641   -0.1154    0.0000 C.ar    1  UNL1        0.1806
     10 C           6.3981    1.3846    0.0000 C.ar    1  UNL1        0.2379
     11 C           7.2641    0.8846    0.0000 C.ar    1  UNL1        0.2082
     12 C           8.1301   -0.6154    0.0000 C.ar    1  UNL1        0.0213
     13 C           4.6381    1.4193    0.0000 C.ar    1  UNL1        0.1348
     14 C           4.6381   -0.6501    0.0000 C.ar    1  UNL1        0.0233
     15 C           3.7320   -0.1362    0.0000 C.ar    1  UNL1        0.1271
     16 C           3.7320    0.9054    0.0000 C.ar    1  UNL1        0.0225
     17 C           8.1301   -1.6154    0.0000 C.ar    1  UNL1       -0.0475
     18 C           8.9962   -0.1154    0.0000 C.ar    1  UNL1       -0.0475
     19 C           8.9962   -2.1154    0.0000 C.ar    1  UNL1       -0.0195
     20 C           9.8622   -0.6154    0.0000 C.ar    1  UNL1       -0.0195
     21 C           9.8622   -1.6154    0.0000 C.ar    1  UNL1        0.1169
     22 C           2.0000   -0.1429    0.0000 C.3     1  UNL1        0.0788
     23 H           4.6453   -1.2700    0.0000 H       1  UNL1        0.0691
     24 H           3.1963    1.2175    0.0000 H       1  UNL1        0.0691
     25 H           7.5932   -1.9254    0.0000 H       1  UNL1        0.0626
     26 H           8.9962    0.5046    0.0000 H       1  UNL1        0.0626
     27 H           8.9962   -2.7354    0.0000 H       1  UNL1        0.0654
     28 H          10.3991   -0.3054    0.0000 H       1  UNL1        0.0654
     29 H           8.1301    2.0046    0.0000 H       1  UNL1        0.2924
     30 H           4.1164    2.7354    0.0000 H       1  UNL1        0.2922
     31 H           2.3079    0.3952    0.0000 H       1  UNL1        0.0660
     32 H           1.4619    0.1650    0.0000 H       1  UNL1        0.0660
     33 H           1.6921   -0.6810    0.0000 H       1  UNL1        0.0660
     34 H          10.7282   -2.7354    0.0000 H       1  UNL1        0.2921
@<TRIPOS>BOND
     1     1     8   ar
     2     1     9   ar
     3     2    15    1
     4     2    22    1
     5     3    11    1
     6     3    29    1
     7     4    13    1
     8     4    30    1
     9     5    10    2
    10     6    21    1
    11     6    34    1
    12     7     8   ar
    13     7    10   ar
    14     7    13   ar
    15     8    14   ar
    16     9    11   ar
    17     9    12    1
    18    10    11   ar
    19    12    17   ar
    20    12    18   ar
    21    13    16   ar
    22    14    15   ar
    23    14    23    1
    24    15    16   ar
    25    16    24    1
    26    17    19   ar
    27    17    25    1
    28    18    20   ar
    29    18    26    1
    30    19    21   ar
    31    19    27    1
    32    20    21   ar
    33    20    28    1
    34    22    31    1
    35    22    32    1
    36    22    33    1
