@<TRIPOS>MOLECULE
IMPHY017819
 51 53 0 0 0
SMALL
GASTEIGER

@<TRIPOS>ATOM
      1 O           2.0000   -1.8435    0.0000 O.2     1  UNL1       -0.2968
      2 C           4.6641   -0.3193    0.0000 C.3     1  UNL1       -0.0209
      3 C           4.6641   -1.3193    0.0000 C.3     1  UNL1       -0.0198
      4 C           5.5301    0.1807    0.0000 C.3     1  UNL1       -0.0102
      5 C           3.7702   -1.8540    0.0000 C.3     1  UNL1        0.0270
      6 C           3.7702    0.2153    0.0000 C.3     1  UNL1       -0.0401
      7 C           5.5301   -1.8193    0.0000 C.3     1  UNL1       -0.0300
      8 C           6.3961   -0.3193    0.0000 C.2     1  UNL1       -0.0477
      9 C           4.6641    0.6807    0.0000 C.3     1  UNL1       -0.0587
     10 C           5.5141    1.2222    0.0000 C.3     1  UNL1       -0.0420
     11 C           2.8641   -0.2985    0.0000 C.3     1  UNL1        0.0069
     12 C           2.8641   -1.3402    0.0000 C.2     1  UNL1        0.1392
     13 C           6.3961   -1.3193    0.0000 C.2     1  UNL1       -0.0802
     14 C           3.2802   -2.7258    0.0000 C.3     1  UNL1       -0.0528
     15 C           4.2801   -2.7142    0.0000 C.3     1  UNL1       -0.0528
     16 C           6.4121    1.7499    0.0000 C.3     1  UNL1       -0.0306
     17 C           7.3062    0.1875    0.0000 C.2     1  UNL1       -0.0591
     18 C           7.3142    1.2291    0.0000 C.2     1  UNL1       -0.0667
     19 C           8.1821    1.7258    0.0000 C.3     1  UNL1       -0.0253
     20 C           8.1860    2.7258    0.0000 C.3     1  UNL1       -0.0589
     21 C           9.0462    1.2224    0.0000 C.3     1  UNL1       -0.0589
     22 H           4.6706   -2.1693    0.0000 H       1  UNL1        0.0318
     23 H           6.2630    0.6113    0.0000 H       1  UNL1        0.0354
     24 H           4.1748    0.6851    0.0000 H       1  UNL1        0.0275
     25 H           3.3765    0.6943    0.0000 H       1  UNL1        0.0275
     26 H           5.1316   -2.2943    0.0000 H       1  UNL1        0.0311
     27 H           5.9286   -2.2943    0.0000 H       1  UNL1        0.0311
     28 H           5.2841    0.6807    0.0000 H       1  UNL1        0.0235
     29 H           4.6641    1.3007    0.0000 H       1  UNL1        0.0235
     30 H           4.0441    0.6807    0.0000 H       1  UNL1        0.0235
     31 H           5.2960    1.8026    0.0000 H       1  UNL1        0.0274
     32 H           4.9049    1.1067    0.0000 H       1  UNL1        0.0274
     33 H           2.6550    0.2852    0.0000 H       1  UNL1        0.0342
     34 H           2.2532   -0.4046    0.0000 H       1  UNL1        0.0342
     35 H           6.9331   -1.6293    0.0000 H       1  UNL1        0.0575
     36 H           2.7397   -2.4220    0.0000 H       1  UNL1        0.0239
     37 H           2.9764   -3.2662    0.0000 H       1  UNL1        0.0239
     38 H           3.8207   -3.0295    0.0000 H       1  UNL1        0.0239
     39 H           3.7468   -3.0304    0.0000 H       1  UNL1        0.0239
     40 H           4.5963   -3.2475    0.0000 H       1  UNL1        0.0239
     41 H           4.8134   -2.3980    0.0000 H       1  UNL1        0.0239
     42 H           6.8094    2.2259    0.0000 H       1  UNL1        0.0310
     43 H           6.0111    2.2228    0.0000 H       1  UNL1        0.0310
     44 H           7.8395   -0.1287    0.0000 H       1  UNL1        0.0620
     45 H           8.7203    2.0337    0.0000 H       1  UNL1        0.0340
     46 H           8.8060    2.7234    0.0000 H       1  UNL1        0.0235
     47 H           8.1884    3.3458    0.0000 H       1  UNL1        0.0235
     48 H           7.5660    2.7281    0.0000 H       1  UNL1        0.0235
     49 H           8.7342    0.6867    0.0000 H       1  UNL1        0.0235
     50 H           9.5820    0.9104    0.0000 H       1  UNL1        0.0235
     51 H           9.3583    1.7582    0.0000 H       1  UNL1        0.0235
@<TRIPOS>BOND
     1     1    12    2
     2     2     3    1
     3     2     4    1
     4     2     6    1
     5     2     9    1
     6     3     5    1
     7     3     7    1
     8     3    22    1
     9     4     8    1
    10     4    10    1
    11     4    23    1
    12     5    12    1
    13     5    14    1
    14     5    15    1
    15     6    11    1
    16     6    24    1
    17     6    25    1
    18     7    13    1
    19     7    26    1
    20     7    27    1
    21     8    13    2
    22     8    17    1
    23     9    28    1
    24     9    29    1
    25     9    30    1
    26    10    16    1
    27    10    31    1
    28    10    32    1
    29    11    12    1
    30    11    33    1
    31    11    34    1
    32    13    35    1
    33    14    36    1
    34    14    37    1
    35    14    38    1
    36    15    39    1
    37    15    40    1
    38    15    41    1
    39    16    18    1
    40    16    42    1
    41    16    43    1
    42    17    18    2
    43    17    44    1
    44    18    19    1
    45    19    20    1
    46    19    21    1
    47    19    45    1
    48    20    46    1
    49    20    47    1
    50    20    48    1
    51    21    49    1
    52    21    50    1
    53    21    51    1
