@<TRIPOS>MOLECULE
IMPHY007963
 150 157 0 0 0
SMALL
GASTEIGER

@<TRIPOS>ATOM
      1 O           6.0026    2.6786    0.0000 O.3     1  UNL1       -0.3909
      2 O           6.8671   -5.0463    0.0000 O.3     1  UNL1       -0.3448
      3 O           8.6267    4.2298    0.0000 O.3     1  UNL1       -0.3756
      4 O           9.3112   -4.3546    0.0000 O.3     1  UNL1       -0.3944
      5 O           5.1350   -5.0463    0.0000 O.3     1  UNL1       -0.3405
      6 O           6.8671   -7.0463    0.0000 O.3     1  UNL1       -0.3378
      7 O           8.6036    7.2298    0.0000 O.3     1  UNL1       -0.3483
      8 O           5.1350   -8.0463    0.0000 O.3     1  UNL1       -0.3864
      9 O           3.4030   -7.0463    0.0000 O.3     1  UNL1       -0.3865
     10 O           6.0010   -8.5463    0.0000 O.3     1  UNL1       -0.3405
     11 O           2.5369   -5.5463    0.0000 O.3     1  UNL1       -0.3924
     12 O           9.4580    8.7364    0.0000 O.3     1  UNL1       -0.3405
     13 O           8.5991   -8.0463    0.0000 O.3     1  UNL1       -0.3841
     14 O          10.3433    6.2431    0.0000 O.3     1  UNL1       -0.3841
     15 O           8.5991  -10.0463    0.0000 O.3     1  UNL1       -0.3864
     16 O           6.8671  -11.0463    0.0000 O.3     1  UNL1       -0.3865
     17 O          12.0676    7.2565    0.0000 O.3     1  UNL1       -0.3864
     18 O          12.0521    9.2564    0.0000 O.3     1  UNL1       -0.3865
     19 O           4.2690   -9.5463    0.0000 O.3     1  UNL1       -0.3924
     20 O           9.4426   10.7363    0.0000 O.3     1  UNL1       -0.3924
     21 C           7.7681   -0.3461    0.0000 C.3     1  UNL1       -0.0230
     22 C           6.9040   -0.8494    0.0000 C.3     1  UNL1       -0.0294
     23 C           7.7643    0.6539    0.0000 C.3     1  UNL1       -0.0212
     24 C           6.8920   -1.8910    0.0000 C.3     1  UNL1       -0.0252
     25 C           7.7920   -2.4153    0.0000 C.3     1  UNL1       -0.0255
     26 C           6.8963    1.1506    0.0000 C.3     1  UNL1       -0.0085
     27 C           8.6801   -0.8494    0.0000 C.3     1  UNL1       -0.0466
     28 C           6.0361   -0.3528    0.0000 C.3     1  UNL1       -0.0488
     29 C           8.6921   -1.8910    0.0000 C.3     1  UNL1       -0.0485
     30 C           6.0322    0.6472    0.0000 C.3     1  UNL1       -0.0470
     31 C           7.8046   -3.5002    0.0000 C.3     1  UNL1        0.0206
     32 C           8.6723    1.1643    0.0000 C.3     1  UNL1       -0.0461
     33 C           6.8762    2.1920    0.0000 C.3     1  UNL1        0.0663
     34 C           5.9421   -2.4153    0.0000 C.3     1  UNL1       -0.0447
     35 C           7.7722    2.7232    0.0000 C.3     1  UNL1        0.0204
     36 C           8.7522   -0.1686    0.0000 C.3     1  UNL1       -0.0588
     37 C           8.6763    2.2059    0.0000 C.3     1  UNL1       -0.0424
     38 C           8.7497    0.4841    0.0000 C.3     1  UNL1       -0.0587
     39 C           6.8671   -4.0463    0.0000 C.3     1  UNL1        0.0695
     40 C           6.0279   -1.3876    0.0000 C.3     1  UNL1       -0.0590
     41 C           5.9295   -3.5002    0.0000 C.3     1  UNL1       -0.0254
     42 C           6.9024    3.2165    0.0000 C.3     1  UNL1       -0.0406
     43 C           8.8046   -3.4925    0.0000 C.3     1  UNL1        0.0522
     44 C           8.6344    3.2299    0.0000 C.3     1  UNL1        0.0560
     45 C           8.3113   -4.3623    0.0000 C.3     1  UNL1       -0.0548
     46 C           6.8947    4.2165    0.0000 C.3     1  UNL1       -0.0256
     47 C           7.7568    4.7232    0.0000 C.3     1  UNL1        0.0634
     48 C           6.0010   -5.5463    0.0000 C.3     1  UNL1        0.1886
     49 C           7.7491    5.7231    0.0000 C.3     1  UNL1        0.0060
     50 C           6.0010   -6.5463    0.0000 C.3     1  UNL1        0.1406
     51 C           8.6113    6.2298    0.0000 C.3     1  UNL1        0.0557
     52 C           6.8793    6.2164    0.0000 C.3     1  UNL1       -0.0580
     53 C           5.1350   -7.0463    0.0000 C.3     1  UNL1        0.1144
     54 C           4.2690   -5.5463    0.0000 C.3     1  UNL1        0.1130
     55 C           4.2690   -6.5463    0.0000 C.3     1  UNL1        0.1119
     56 C           3.4030   -5.0463    0.0000 C.3     1  UNL1        0.0730
     57 C           6.8671   -8.0463    0.0000 C.3     1  UNL1        0.1885
     58 C           9.4657    7.7364    0.0000 C.3     1  UNL1        0.1879
     59 C           7.7331   -8.5463    0.0000 C.3     1  UNL1        0.1341
     60 C          10.3356    7.2431    0.0000 C.3     1  UNL1        0.1341
     61 C           7.7331   -9.5463    0.0000 C.3     1  UNL1        0.1141
     62 C           6.0010   -9.5463    0.0000 C.3     1  UNL1        0.1130
     63 C           6.8671  -10.0463    0.0000 C.3     1  UNL1        0.1119
     64 C          11.1977    7.7498    0.0000 C.3     1  UNL1        0.1141
     65 C          10.3201    9.2430    0.0000 C.3     1  UNL1        0.1130
     66 C          11.1900    8.7497    0.0000 C.3     1  UNL1        0.1119
     67 C           5.1350  -10.0463    0.0000 C.3     1  UNL1        0.0730
     68 C          10.3124   10.2430    0.0000 C.3     1  UNL1        0.0730
     69 H           7.6385   -1.2773    0.0000 H       1  UNL1        0.0312
     70 H           8.5314   -2.8346    0.0000 H       1  UNL1        0.0313
     71 H           6.1553    1.5670    0.0000 H       1  UNL1        0.0331
     72 H           9.2921   -0.9484    0.0000 H       1  UNL1        0.0271
     73 H           8.8824   -0.2634    0.0000 H       1  UNL1        0.0271
     74 H           5.4251   -0.2475    0.0000 H       1  UNL1        0.0268
     75 H           5.8263   -0.9362    0.0000 H       1  UNL1        0.0268
     76 H           8.9079   -2.4722    0.0000 H       1  UNL1        0.0268
     77 H           9.3017   -1.7778    0.0000 H       1  UNL1        0.0268
     78 H           5.8179    1.2290    0.0000 H       1  UNL1        0.0269
     79 H           5.4221    0.5372    0.0000 H       1  UNL1        0.0269
     80 H           8.8791    0.5798    0.0000 H       1  UNL1        0.0271
     81 H           9.2836    1.2680    0.0000 H       1  UNL1        0.0271
     82 H           6.3448    1.8727    0.0000 H       1  UNL1        0.0602
     83 H           5.7398   -1.8292    0.0000 H       1  UNL1        0.0271
     84 H           5.3300   -2.5143    0.0000 H       1  UNL1        0.0271
     85 H           8.8623   -0.7788    0.0000 H       1  UNL1        0.0235
     86 H           9.3624   -0.0586    0.0000 H       1  UNL1        0.0235
     87 H           8.6422    0.4415    0.0000 H       1  UNL1        0.0235
     88 H           9.2868    2.0974    0.0000 H       1  UNL1        0.0272
     89 H           8.8876    2.7888    0.0000 H       1  UNL1        0.0272
     90 H           8.6444   -0.1269    0.0000 H       1  UNL1        0.0235
     91 H           9.3607    0.3787    0.0000 H       1  UNL1        0.0235
     92 H           8.8550    1.0950    0.0000 H       1  UNL1        0.0235
     93 H           7.4046   -4.3553    0.0000 H       1  UNL1        0.0603
     94 H           6.3400   -0.8519    0.0000 H       1  UNL1        0.0235
     95 H           5.4922   -1.0756    0.0000 H       1  UNL1        0.0235
     96 H           5.7158   -1.9234    0.0000 H       1  UNL1        0.0235
     97 H           5.3199   -3.3870    0.0000 H       1  UNL1        0.0290
     98 H           5.7137   -4.0814    0.0000 H       1  UNL1        0.0290
     99 H           6.2910    3.3195    0.0000 H       1  UNL1        0.0273
    100 H           6.6948    2.6323    0.0000 H       1  UNL1        0.0273
    101 H           9.3855   -3.2760    0.0000 H       1  UNL1        0.0563
    102 H           8.6922   -2.8828    0.0000 H       1  UNL1        0.0563
    103 H           8.8509    2.6489    0.0000 H       1  UNL1        0.0566
    104 H           9.2441    3.3422    0.0000 H       1  UNL1        0.0566
    105 H           7.7767   -4.6765    0.0000 H       1  UNL1        0.0237
    106 H           8.6254   -4.8969    0.0000 H       1  UNL1        0.0237
    107 H           8.8458   -4.0482    0.0000 H       1  UNL1        0.0237
    108 H           5.4705    2.3604    0.0000 H       1  UNL1        0.2098
    109 H           6.6781    4.7975    0.0000 H       1  UNL1        0.0290
    110 H           6.2850    4.1041    0.0000 H       1  UNL1        0.0290
    111 H           8.4896    5.1538    0.0000 H       1  UNL1        0.0599
    112 H           6.0010   -4.9263    0.0000 H       1  UNL1        0.0938
    113 H           9.9312   -4.3498    0.0000 H       1  UNL1        0.2094
    114 H           7.2146    5.4090    0.0000 H       1  UNL1        0.0345
    115 H           6.0010   -7.1663    0.0000 H       1  UNL1        0.0675
    116 H           8.8278    5.6488    0.0000 H       1  UNL1        0.0564
    117 H           9.2210    6.3422    0.0000 H       1  UNL1        0.0564
    118 H           7.1851    6.7557    0.0000 H       1  UNL1        0.0234
    119 H           6.3400    6.5223    0.0000 H       1  UNL1        0.0234
    120 H           6.5734    5.6771    0.0000 H       1  UNL1        0.0234
    121 H           4.5981   -7.3563    0.0000 H       1  UNL1        0.0648
    122 H           4.2690   -4.9263    0.0000 H       1  UNL1        0.0647
    123 H           3.7320   -6.2363    0.0000 H       1  UNL1        0.0647
    124 H           3.8015   -4.5714    0.0000 H       1  UNL1        0.0584
    125 H           3.0044   -4.5714    0.0000 H       1  UNL1        0.0584
    126 H           7.4040   -7.7363    0.0000 H       1  UNL1        0.0938
    127 H           4.5981   -8.3563    0.0000 H       1  UNL1        0.2100
    128 H           3.4030   -7.6663    0.0000 H       1  UNL1        0.2100
    129 H           9.4705    7.1164    0.0000 H       1  UNL1        0.0937
    130 H           8.2700   -8.8563    0.0000 H       1  UNL1        0.0671
    131 H          10.8749    6.9373    0.0000 H       1  UNL1        0.0671
    132 H           2.0000   -5.2363    0.0000 H       1  UNL1        0.2095
    133 H           7.7331  -10.1663    0.0000 H       1  UNL1        0.0648
    134 H           5.4641   -9.2363    0.0000 H       1  UNL1        0.0647
    135 H           6.3301  -10.3563    0.0000 H       1  UNL1        0.0647
    136 H          11.7322    8.0639    0.0000 H       1  UNL1        0.0648
    137 H           9.7808    9.5489    0.0000 H       1  UNL1        0.0647
    138 H          11.1852    9.3697    0.0000 H       1  UNL1        0.0647
    139 H           9.1360   -8.3563    0.0000 H       1  UNL1        0.2101
    140 H           4.7365  -10.5213    0.0000 H       1  UNL1        0.0584
    141 H           5.5335  -10.5213    0.0000 H       1  UNL1        0.0584
    142 H          10.8826    5.9373    0.0000 H       1  UNL1        0.2101
    143 H           8.5991  -10.6663    0.0000 H       1  UNL1        0.2100
    144 H          10.9238   10.1401    0.0000 H       1  UNL1        0.0584
    145 H          10.5200   10.8272    0.0000 H       1  UNL1        0.0584
    146 H           6.3301  -11.3563    0.0000 H       1  UNL1        0.2100
    147 H          12.6021    7.5706    0.0000 H       1  UNL1        0.2100
    148 H          12.0474    9.8764    0.0000 H       1  UNL1        0.2100
    149 H           3.7320   -9.8563    0.0000 H       1  UNL1        0.2095
    150 H           9.4378   11.3563    0.0000 H       1  UNL1        0.2095
@<TRIPOS>BOND
     1    33     1    1
     2     1   108    1
     3    39     2    1
     4    48     2    1
     5     3    44    1
     6     3    47    1
     7     4    43    1
     8     4   113    1
     9     5    48    1
    10     5    54    1
    11    50     6    1
    12    57     6    1
    13     7    51    1
    14    58     7    1
    15    53     8    1
    16     8   127    1
    17    55     9    1
    18     9   128    1
    19    10    57    1
    20    10    62    1
    21    11    56    1
    22    11   132    1
    23    12    58    1
    24    12    65    1
    25    59    13    1
    26    13   139    1
    27    60    14    1
    28    14   142    1
    29    61    15    1
    30    15   143    1
    31    63    16    1
    32    16   146    1
    33    64    17    1
    34    17   147    1
    35    66    18    1
    36    18   148    1
    37    19    67    1
    38    19   149    1
    39    20    68    1
    40    20   150    1
    41    21    22    1
    42    21    23    1
    43    21    27    1
    44    21    36    1
    45    22    24    1
    46    22    28    1
    47    22    69    1
    48    23    26    1
    49    23    32    1
    50    23    38    1
    51    24    25    1
    52    24    34    1
    53    24    40    1
    54    25    29    1
    55    25    31    1
    56    25    70    1
    57    26    30    1
    58    26    33    1
    59    26    71    1
    60    27    29    1
    61    27    72    1
    62    27    73    1
    63    28    30    1
    64    28    74    1
    65    28    75    1
    66    29    76    1
    67    29    77    1
    68    30    78    1
    69    30    79    1
    70    31    39    1
    71    31    43    1
    72    31    45    1
    73    32    37    1
    74    32    80    1
    75    32    81    1
    76    33    35    1
    77    33    82    1
    78    34    41    1
    79    34    83    1
    80    34    84    1
    81    35    37    1
    82    35    42    1
    83    35    44    1
    84    36    85    1
    85    36    86    1
    86    36    87    1
    87    37    88    1
    88    37    89    1
    89    38    90    1
    90    38    91    1
    91    38    92    1
    92    39    41    1
    93    39    93    1
    94    40    94    1
    95    40    95    1
    96    40    96    1
    97    41    97    1
    98    41    98    1
    99    42    46    1
   100    42    99    1
   101    42   100    1
   102    43   101    1
   103    43   102    1
   104    44   103    1
   105    44   104    1
   106    45   105    1
   107    45   106    1
   108    45   107    1
   109    46    47    1
   110    46   109    1
   111    46   110    1
   112    47    49    1
   113    47   111    1
   114    48    50    1
   115    48   112    1
   116    49    51    1
   117    49    52    1
   118    49   114    1
   119    50    53    1
   120    50   115    1
   121    51   116    1
   122    51   117    1
   123    52   118    1
   124    52   119    1
   125    52   120    1
   126    53    55    1
   127    53   121    1
   128    54    55    1
   129    54    56    1
   130    54   122    1
   131    55   123    1
   132    56   124    1
   133    56   125    1
   134    57    59    1
   135    57   126    1
   136    58    60    1
   137    58   129    1
   138    59    61    1
   139    59   130    1
   140    60    64    1
   141    60   131    1
   142    61    63    1
   143    61   133    1
   144    62    63    1
   145    62    67    1
   146    62   134    1
   147    63   135    1
   148    64    66    1
   149    64   136    1
   150    65    66    1
   151    65    68    1
   152    65   137    1
   153    66   138    1
   154    67   140    1
   155    67   141    1
   156    68   144    1
   157    68   145    1
