@<TRIPOS>MOLECULE
IMPHY008140
 35 37 0 0 0
SMALL
GASTEIGER

@<TRIPOS>ATOM
      1 O           2.8680    1.2741    0.0000 O.3     1  UNL1       -0.4951
      2 O           6.3981    2.2500    0.0000 O.2     1  UNL1       -0.2871
      3 N           6.3981   -0.7500    0.0000 N.ar    1  UNL1       -0.3427
      4 C           5.5320   -0.2500    0.0000 C.ar    1  UNL1        0.0531
      5 C           7.2641   -0.2500    0.0000 C.ar    1  UNL1        0.0529
      6 C           5.5320    0.7500    0.0000 C.ar    1  UNL1        0.0486
      7 C           7.2641    0.7500    0.0000 C.ar    1  UNL1        0.0098
      8 C           6.3981    1.2500    0.0000 C.ar    1  UNL1        0.1901
      9 C           8.1301   -0.7500    0.0000 C.ar    1  UNL1       -0.0014
     10 C           4.6381   -0.7847    0.0000 C.ar    1  UNL1       -0.0340
     11 C           4.6381    1.2847    0.0000 C.ar    1  UNL1       -0.0072
     12 C           6.3981   -1.7500    0.0000 C.3     1  UNL1        0.0124
     13 C           3.7320    0.7708    0.0000 C.ar    1  UNL1        0.1209
     14 C           3.7320   -0.2708    0.0000 C.ar    1  UNL1       -0.0180
     15 C           8.1301   -1.7500    0.0000 C.ar    1  UNL1       -0.0526
     16 C           8.9962   -0.2500    0.0000 C.ar    1  UNL1       -0.0526
     17 C           8.9962   -2.2500    0.0000 C.ar    1  UNL1       -0.0611
     18 C           9.8622   -0.7500    0.0000 C.ar    1  UNL1       -0.0611
     19 C           9.8622   -1.7500    0.0000 C.ar    1  UNL1       -0.0617
     20 C           2.0000    0.7775    0.0000 C.3     1  UNL1        0.0788
     21 H           7.8010    1.0600    0.0000 H       1  UNL1        0.0677
     22 H           4.6453   -1.4046    0.0000 H       1  UNL1        0.0639
     23 H           4.6453    1.9046    0.0000 H       1  UNL1        0.0662
     24 H           5.7781   -1.7500    0.0000 H       1  UNL1        0.0456
     25 H           6.3981   -2.3700    0.0000 H       1  UNL1        0.0456
     26 H           7.0181   -1.7500    0.0000 H       1  UNL1        0.0456
     27 H           3.1963   -0.5829    0.0000 H       1  UNL1        0.0655
     28 H           7.5932   -2.0600    0.0000 H       1  UNL1        0.0624
     29 H           8.9962    0.3700    0.0000 H       1  UNL1        0.0624
     30 H           8.9962   -2.8700    0.0000 H       1  UNL1        0.0618
     31 H          10.3991   -0.4400    0.0000 H       1  UNL1        0.0618
     32 H          10.3991   -2.0600    0.0000 H       1  UNL1        0.0618
     33 H           1.6921    1.3156    0.0000 H       1  UNL1        0.0660
     34 H           1.4619    0.4696    0.0000 H       1  UNL1        0.0660
     35 H           2.3079    0.2394    0.0000 H       1  UNL1        0.0660
@<TRIPOS>BOND
     1     1    13    1
     2     1    20    1
     3     2     8    2
     4     3     4   ar
     5     3     5   ar
     6     3    12    1
     7     4     6   ar
     8     4    10   ar
     9     5     7   ar
    10     5     9    1
    11     6     8   ar
    12     6    11   ar
    13     7     8   ar
    14     7    21    1
    15     9    15   ar
    16     9    16   ar
    17    10    14   ar
    18    10    22    1
    19    11    13   ar
    20    11    23    1
    21    12    24    1
    22    12    25    1
    23    12    26    1
    24    13    14   ar
    25    14    27    1
    26    15    17   ar
    27    15    28    1
    28    16    18   ar
    29    16    29    1
    30    17    19   ar
    31    17    30    1
    32    18    19   ar
    33    18    31    1
    34    19    32    1
    35    20    33    1
    36    20    34    1
    37    20    35    1
