@<TRIPOS>MOLECULE
IMPHY000530
 33 36 0 0 0
SMALL
GASTEIGER

@<TRIPOS>ATOM
      1 O        2555.2400 2419.5500    0.0000 O.2     1  UNL1       -0.2862
      2 C        2555.2400 2459.5500    0.0000 C.ar    1  UNL1        0.2048
      3 C        2520.6000 2479.7000    0.0000 C.ar    1  UNL1        0.1125
      4 C        2520.6000 2520.0000    0.0000 C.ar    1  UNL1        0.1544
      5 O        2555.2400 2540.1500    0.0000 O.2     1  UNL1       -0.4531
      6 C        2589.7800 2520.0000    0.0000 C.ar    1  UNL1        0.1484
      7 C        2589.7800 2479.7000    0.0000 C.ar    1  UNL1        0.0797
      8 C        2624.4200 2540.0500    0.0000 C.ar    1  UNL1        0.0349
      9 C        2624.4200 2580.0500    0.0000 C.ar    1  UNL1        0.0063
     10 C        2659.0600 2600.0000    0.0000 C.ar    1  UNL1        0.0421
     11 C        2693.7000 2580.0500    0.0000 C.ar    1  UNL1        0.1957
     12 C        2693.7000 2540.0500    0.0000 C.ar    1  UNL1        0.0421
     13 C        2659.0600 2520.0000    0.0000 C.ar    1  UNL1        0.0063
     14 O        2728.3400 2600.0000    0.0000 O.3     1  UNL1       -0.2866
     15 C        2486.0500 2540.1500    0.0000 C.ar    1  UNL1        0.0748
     16 C        2451.5100 2520.0000    0.0000 C.ar    1  UNL1        0.1476
     17 C        2451.5100 2479.7000    0.0000 C.ar    1  UNL1        0.0793
     18 C        2486.0500 2459.5500    0.0000 C.ar    1  UNL1        0.2047
     19 O        2486.0500 2419.5500    0.0000 O.3     1  UNL1       -0.2862
     20 O        2416.8700 2540.0500    0.0000 O.3     1  UNL1       -0.4503
     21 C        2382.2300 2520.0000    0.0000 C.3     1  UNL1        0.3222
     22 O        2382.2300 2480.0000    0.0000 O.3     1  UNL1       -0.3069
     23 C        2347.6900 2460.0500    0.0000 C.3     1  UNL1        0.2495
     24 C        2347.6900 2420.0500    0.0000 C.2     1  UNL1        0.3474
     25 O        2313.0500 2400.0000    0.0000 O.3     1  UNL1       -0.4427
     26 C        2271.6600 2423.9200    0.0000 C.3     1  UNL1        0.2557
     27 O        2382.3300 2400.0000    0.0000 O.2     1  UNL1       -0.2473
     28 C        2312.9500 2480.0000    0.0000 C.3     1  UNL1        0.2228
     29 C        2312.9500 2520.0000    0.0000 C.3     1  UNL1        0.2216
     30 C        2347.6900 2540.0500    0.0000 C.3     1  UNL1        0.2542
     31 O        2347.6900 2580.0500    0.0000 O.3     1  UNL1       -0.2135
     32 O        2278.3100 2540.0500    0.0000 O.3     1  UNL1       -0.2173
     33 O        2278.3100 2460.0500    0.0000 O.3     1  UNL1       -0.2171
@<TRIPOS>BOND
     1     1     2    2
     2     2     3   ar
     3     2     7   ar
     4     3     4   ar
     5     3    18   ar
     6     4     5   ar
     7     4    15   ar
     8     6     5   ar
     9     6     8    1
    10     7     6   ar
    11     8     9   ar
    12     8    13   ar
    13     9    10   ar
    14    10    11   ar
    15    11    14    1
    16    12    11   ar
    17    13    12   ar
    18    15    16   ar
    19    16    20    1
    20    17    16   ar
    21    18    17   ar
    22    18    19    1
    23    21    20    1
    24    21    22    1
    25    21    30    1
    26    22    23    1
    27    23    24    1
    28    23    28    1
    29    24    25    1
    30    24    27    2
    31    25    26    1
    32    28    33    1
    33    29    28    1
    34    29    32    1
    35    30    29    1
    36    30    31    1
