@<TRIPOS>MOLECULE
IMPHY000323
 43 46 0 0 0
SMALL
GASTEIGER

@<TRIPOS>ATOM
      1 O           9.7082    0.7972    0.0000 O.3     1  UNL1       -0.3651
      2 O           9.0532    3.4789    0.0000 O.3     1  UNL1       -0.3885
      3 O           5.9670    1.2335    0.0000 O.2     1  UNL1       -0.4709
      4 O           6.8671   -0.2908    0.0000 O.3     1  UNL1       -0.3095
      5 O           5.1350   -0.2908    0.0000 O.3     1  UNL1       -0.3404
      6 O           6.8671   -2.2908    0.0000 O.3     1  UNL1       -0.3841
      7 O           5.1350   -3.2908    0.0000 O.3     1  UNL1       -0.3864
      8 O           3.4030   -2.2908    0.0000 O.3     1  UNL1       -0.3865
      9 O           2.5369   -0.7908    0.0000 O.3     1  UNL1       -0.3924
     10 C           8.7145    0.9135    0.0000 C.3     1  UNL1        0.0969
     11 C           9.3116    1.7157    0.0000 C.3     1  UNL1        0.1120
     12 C           7.7671    1.2335    0.0000 C.3     1  UNL1        0.0591
     13 C           7.7787    2.2335    0.0000 C.3     1  UNL1        0.0197
     14 C           8.7333    2.5315    0.0000 C.3     1  UNL1        0.0906
     15 C           6.8671    0.7092    0.0000 C.3     1  UNL1        0.2093
     16 C           6.8910    2.7784    0.0000 C.2     1  UNL1       -0.0434
     17 C           5.9790    2.2751    0.0000 C.2     1  UNL1        0.0843
     18 C           6.0010   -0.7908    0.0000 C.3     1  UNL1        0.1918
     19 C           6.0010   -1.7908    0.0000 C.3     1  UNL1        0.1342
     20 C           5.1350   -2.2908    0.0000 C.3     1  UNL1        0.1141
     21 C           4.2690   -1.7908    0.0000 C.3     1  UNL1        0.1119
     22 C           4.2690   -0.7908    0.0000 C.3     1  UNL1        0.1130
     23 C           3.4030   -0.2908    0.0000 C.3     1  UNL1        0.0730
     24 H           8.5786    0.3086    0.0000 H       1  UNL1        0.0628
     25 H           9.8521    2.0195    0.0000 H       1  UNL1        0.0648
     26 H           7.8527    0.3878    0.0000 H       1  UNL1        0.0394
     27 H           7.8838    3.0769    0.0000 H       1  UNL1        0.0375
     28 H           9.3467    2.6214    0.0000 H       1  UNL1        0.0626
     29 H           7.4046    0.4003    0.0000 H       1  UNL1        0.1060
     30 H           6.9053    3.3983    0.0000 H       1  UNL1        0.0606
     31 H           9.6611    3.6008    0.0000 H       1  UNL1        0.2099
     32 H           5.4470    2.5933    0.0000 H       1  UNL1        0.1021
     33 H           6.0010   -0.1708    0.0000 H       1  UNL1        0.0939
     34 H           6.0010   -2.4108    0.0000 H       1  UNL1        0.0671
     35 H           4.5981   -2.6008    0.0000 H       1  UNL1        0.0648
     36 H           3.7320   -1.4808    0.0000 H       1  UNL1        0.0647
     37 H           4.2690   -0.1708    0.0000 H       1  UNL1        0.0647
     38 H           3.8015    0.1842    0.0000 H       1  UNL1        0.0584
     39 H           3.0044    0.1842    0.0000 H       1  UNL1        0.0584
     40 H           6.8671   -2.9108    0.0000 H       1  UNL1        0.2101
     41 H           4.5981   -3.6008    0.0000 H       1  UNL1        0.2100
     42 H           3.4030   -2.9108    0.0000 H       1  UNL1        0.2100
     43 H           2.0000   -0.4808    0.0000 H       1  UNL1        0.2095
@<TRIPOS>BOND
     1    10     1    1
     2    11     1    1
     3    14     2    1
     4     2    31    1
     5     3    15    1
     6     3    17    1
     7    15     4    1
     8    18     4    1
     9     5    18    1
    10     5    22    1
    11    19     6    1
    12     6    40    1
    13    20     7    1
    14     7    41    1
    15    21     8    1
    16     8    42    1
    17     9    23    1
    18     9    43    1
    19    10    11    1
    20    10    12    1
    21    10    24    1
    22    11    14    1
    23    11    25    1
    24    12    13    1
    25    12    15    1
    26    12    26    1
    27    13    14    1
    28    13    16    1
    29    13    27    1
    30    14    28    1
    31    15    29    1
    32    16    17    2
    33    16    30    1
    34    17    32    1
    35    18    19    1
    36    18    33    1
    37    19    20    1
    38    19    34    1
    39    20    21    1
    40    20    35    1
    41    21    22    1
    42    21    36    1
    43    22    23    1
    44    22    37    1
    45    23    38    1
    46    23    39    1
