@<TRIPOS>MOLECULE
IMPHY000113
 102 108 0 0 0
SMALL
GASTEIGER

@<TRIPOS>ATOM
      1 O          14.8541    0.9837    0.0000 O.3     1  UNL1       -0.3876
      2 O          17.3782   -0.5260    0.0000 O.3     1  UNL1       -0.3911
      3 O           9.4651    2.0569    0.0000 O.3     1  UNL1       -0.3480
      4 O          16.0950   -3.8944    0.0000 O.3     1  UNL1       -0.4571
      5 O           7.7331    2.0569    0.0000 O.3     1  UNL1       -0.3456
      6 O          17.8545   -4.1769    0.0000 O.2     1  UNL1       -0.2456
      7 O           7.7331   -0.9431    0.0000 O.3     1  UNL1       -0.3890
      8 O           6.0010    0.0569    0.0000 O.3     1  UNL1       -0.3403
      9 O           5.1350    1.5569    0.0000 O.3     1  UNL1       -0.3405
     10 O           4.2690   -0.9431    0.0000 O.3     1  UNL1       -0.3841
     11 O           2.5369    0.0569    0.0000 O.3     1  UNL1       -0.3864
     12 O           2.5369    2.0569    0.0000 O.3     1  UNL1       -0.3865
     13 O           5.1350    3.5569    0.0000 O.3     1  UNL1       -0.3924
     14 C          14.8503   -0.0162    0.0000 C.3     1  UNL1        0.0775
     15 C          13.9862    0.4871    0.0000 C.3     1  UNL1       -0.0082
     16 C          13.1182   -0.0096    0.0000 C.3     1  UNL1       -0.0299
     17 C          14.8464   -1.0162    0.0000 C.3     1  UNL1        0.0060
     18 C          12.2102    0.5008    0.0000 C.3     1  UNL1       -0.0259
     19 C          12.2062    1.5424    0.0000 C.3     1  UNL1       -0.0330
     20 C          15.7915   -1.3246    0.0000 C.3     1  UNL1        0.0179
     21 C          13.1144   -1.0096    0.0000 C.3     1  UNL1       -0.0488
     22 C          13.9785   -1.5129    0.0000 C.3     1  UNL1       -0.0441
     23 C          15.7977    0.2848    0.0000 C.3     1  UNL1        0.0035
     24 C          14.0063    1.5285    0.0000 C.3     1  UNL1       -0.0470
     25 C          16.3782   -0.5221    0.0000 C.3     1  UNL1        0.0651
     26 C          13.1103    2.0597    0.0000 C.3     1  UNL1       -0.0493
     27 C          11.2812   -0.0597    0.0000 C.3     1  UNL1       -0.0448
     28 C          14.8426   -2.0162    0.0000 C.3     1  UNL1       -0.0563
     29 C          11.2729    2.0957    0.0000 C.3     1  UNL1       -0.0232
     30 C          12.2140   -0.4992    0.0000 C.3     1  UNL1       -0.0590
     31 C          10.3353    0.4719    0.0000 C.3     1  UNL1       -0.0260
     32 C          10.3312    1.5569    0.0000 C.3     1  UNL1        0.0620
     33 C          16.0985   -2.2763    0.0000 C.2     1  UNL1       -0.0198
     34 C          15.5090   -3.0841    0.0000 C.3     1  UNL1        0.1148
     35 C          17.0489   -2.5874    0.0000 C.2     1  UNL1        0.0253
     36 C          17.0467   -3.5874    0.0000 C.2     1  UNL1        0.3323
     37 C           8.5991    1.5569    0.0000 C.3     1  UNL1        0.1624
     38 C           8.5991    0.5569    0.0000 C.3     1  UNL1        0.0270
     39 C           7.7331    0.0569    0.0000 C.3     1  UNL1        0.0884
     40 C           6.8671    1.5569    0.0000 C.3     1  UNL1        0.0875
     41 C           6.8671    0.5569    0.0000 C.3     1  UNL1        0.1136
     42 C           6.0010    2.0569    0.0000 C.3     1  UNL1       -0.0361
     43 C           5.1350    0.5569    0.0000 C.3     1  UNL1        0.1884
     44 C           4.2690    0.0569    0.0000 C.3     1  UNL1        0.1341
     45 C           3.4030    0.5569    0.0000 C.3     1  UNL1        0.1141
     46 C           4.2690    2.0569    0.0000 C.3     1  UNL1        0.1130
     47 C           3.4030    1.5569    0.0000 C.3     1  UNL1        0.1119
     48 C           4.2690    3.0569    0.0000 C.3     1  UNL1        0.0730
     49 H          14.7272    0.9036    0.0000 H       1  UNL1        0.0331
     50 H          13.8527   -0.4374    0.0000 H       1  UNL1        0.0310
     51 H          12.2127    2.3924    0.0000 H       1  UNL1        0.0307
     52 H          16.4036   -1.4232    0.0000 H       1  UNL1        0.0378
     53 H          12.5042   -0.8995    0.0000 H       1  UNL1        0.0268
     54 H          12.9001   -1.5914    0.0000 H       1  UNL1        0.0268
     55 H          13.5781   -1.9863    0.0000 H       1  UNL1        0.0272
     56 H          14.3752   -1.9894    0.0000 H       1  UNL1        0.0272
     57 H          16.3362    0.5920    0.0000 H       1  UNL1        0.0318
     58 H          15.5488    0.8527    0.0000 H       1  UNL1        0.0318
     59 H          14.6150    1.4107    0.0000 H       1  UNL1        0.0269
     60 H          14.2265    2.1081    0.0000 H       1  UNL1        0.0269
     61 H          16.6620    0.0291    0.0000 H       1  UNL1        0.0600
     62 H          13.5130    2.5311    0.0000 H       1  UNL1        0.0268
     63 H          12.7148    2.5372    0.0000 H       1  UNL1        0.0268
     64 H          10.8894   -0.5403    0.0000 H       1  UNL1        0.0271
     65 H          11.6876   -0.5279    0.0000 H       1  UNL1        0.0271
     66 H          14.2226   -2.0138    0.0000 H       1  UNL1        0.0236
     67 H          14.8402   -2.6362    0.0000 H       1  UNL1        0.0236
     68 H          15.4626   -2.0186    0.0000 H       1  UNL1        0.0236
     69 H          11.6757    2.5671    0.0000 H       1  UNL1        0.0293
     70 H          10.8774    2.5732    0.0000 H       1  UNL1        0.0293
     71 H          11.5941   -0.5016    0.0000 H       1  UNL1        0.0235
     72 H          12.2164   -1.1192    0.0000 H       1  UNL1        0.0235
     73 H          12.8340   -0.4968    0.0000 H       1  UNL1        0.0235
     74 H           9.7241    0.5756    0.0000 H       1  UNL1        0.0290
     75 H          10.1285   -0.1126    0.0000 H       1  UNL1        0.0290
     76 H           9.7948    1.2458    0.0000 H       1  UNL1        0.0597
     77 H          15.3923    1.2917    0.0000 H       1  UNL1        0.2102
     78 H          17.6902    0.0097    0.0000 H       1  UNL1        0.2098
     79 H          15.0491   -2.6682    0.0000 H       1  UNL1        0.0746
     80 H          15.0473   -3.4980    0.0000 H       1  UNL1        0.0746
     81 H          17.5512   -2.2240    0.0000 H       1  UNL1        0.0689
     82 H           8.5991    2.1769    0.0000 H       1  UNL1        0.0910
     83 H           8.8112   -0.0257    0.0000 H       1  UNL1        0.0340
     84 H           9.2097    0.6645    0.0000 H       1  UNL1        0.0340
     85 H           8.2700   -0.2531    0.0000 H       1  UNL1        0.0622
     86 H           6.8671    2.1769    0.0000 H       1  UNL1        0.0621
     87 H           6.3301    0.8669    0.0000 H       1  UNL1        0.0649
     88 H           6.3110    2.5938    0.0000 H       1  UNL1        0.0255
     89 H           5.4641    2.3669    0.0000 H       1  UNL1        0.0255
     90 H           5.6910    1.5199    0.0000 H       1  UNL1        0.0255
     91 H           8.2700   -1.2531    0.0000 H       1  UNL1        0.2099
     92 H           5.1350   -0.0631    0.0000 H       1  UNL1        0.0938
     93 H           3.7320   -0.2531    0.0000 H       1  UNL1        0.0671
     94 H           2.8660    0.8669    0.0000 H       1  UNL1        0.0648
     95 H           4.8059    2.3669    0.0000 H       1  UNL1        0.0647
     96 H           3.4030    2.1769    0.0000 H       1  UNL1        0.0647
     97 H           3.7320   -1.2531    0.0000 H       1  UNL1        0.2101
     98 H           4.0569    3.6395    0.0000 H       1  UNL1        0.0584
     99 H           3.6584    2.9492    0.0000 H       1  UNL1        0.0584
    100 H           2.0000    0.3669    0.0000 H       1  UNL1        0.2100
    101 H           2.5369    2.6769    0.0000 H       1  UNL1        0.2100
    102 H           5.1350    4.1769    0.0000 H       1  UNL1        0.2095
@<TRIPOS>BOND
     1    14     1    1
     2     1    77    1
     3    25     2    1
     4     2    78    1
     5    32     3    1
     6    37     3    1
     7     4    34    1
     8     4    36    1
     9     5    37    1
    10     5    40    1
    11     6    36    2
    12    39     7    1
    13     7    91    1
    14    41     8    1
    15    43     8    1
    16     9    43    1
    17     9    46    1
    18    44    10    1
    19    10    97    1
    20    45    11    1
    21    11   100    1
    22    47    12    1
    23    12   101    1
    24    13    48    1
    25    13   102    1
    26    14    15    1
    27    14    17    1
    28    14    23    1
    29    15    16    1
    30    15    24    1
    31    15    49    1
    32    16    18    1
    33    16    21    1
    34    16    50    1
    35    17    20    1
    36    17    22    1
    37    17    28    1
    38    18    19    1
    39    18    27    1
    40    18    30    1
    41    19    26    1
    42    19    29    1
    43    19    51    1
    44    20    25    1
    45    20    33    1
    46    20    52    1
    47    21    22    1
    48    21    53    1
    49    21    54    1
    50    22    55    1
    51    22    56    1
    52    23    25    1
    53    23    57    1
    54    23    58    1
    55    24    26    1
    56    24    59    1
    57    24    60    1
    58    25    61    1
    59    26    62    1
    60    26    63    1
    61    27    31    1
    62    27    64    1
    63    27    65    1
    64    28    66    1
    65    28    67    1
    66    28    68    1
    67    29    32    1
    68    29    69    1
    69    29    70    1
    70    30    71    1
    71    30    72    1
    72    30    73    1
    73    31    32    1
    74    31    74    1
    75    31    75    1
    76    32    76    1
    77    33    34    1
    78    33    35    2
    79    34    79    1
    80    34    80    1
    81    35    36    1
    82    35    81    1
    83    37    38    1
    84    37    82    1
    85    38    39    1
    86    38    83    1
    87    38    84    1
    88    39    41    1
    89    39    85    1
    90    40    41    1
    91    40    42    1
    92    40    86    1
    93    41    87    1
    94    42    88    1
    95    42    89    1
    96    42    90    1
    97    43    44    1
    98    43    92    1
    99    44    45    1
   100    44    93    1
   101    45    47    1
   102    45    94    1
   103    46    47    1
   104    46    48    1
   105    46    95    1
   106    47    96    1
   107    48    98    1
   108    48    99    1
