@<TRIPOS>MOLECULE
IMPHY001457
 53 56 0 0 0
SMALL
GASTEIGER

@<TRIPOS>ATOM
      1 O           6.1660    0.5409    0.0000 O.3     1  UNL1       -0.3622
      2 O           4.1660    0.5409    0.0000 O.3     1  UNL1       -0.3765
      3 O           3.6660    1.4069    0.0000 O.3     1  UNL1       -0.3864
      4 O           4.6660    3.1390    0.0000 O.3     1  UNL1       -0.3865
      5 O           6.6660    3.1390    0.0000 O.3     1  UNL1       -0.3865
      6 O           8.1660    2.2729    0.0000 O.3     1  UNL1       -0.3924
      7 O           4.6660   -3.3251    0.0000 O.2     1  UNL1       -0.2864
      8 O           6.4144   -3.3597    0.0000 O.3     1  UNL1       -0.5060
      9 O           2.9176   -3.3597    0.0000 O.3     1  UNL1       -0.5060
     10 O           9.0641   -0.7976    0.0000 O.3     1  UNL1       -0.3904
     11 C           5.1660    0.5409    0.0000 C.3     1  UNL1        0.1244
     12 C           4.6660   -0.3251    0.0000 C.3     1  UNL1        0.1459
     13 C           4.6660    1.4069    0.0000 C.3     1  UNL1        0.1129
     14 C           5.1660    2.2729    0.0000 C.3     1  UNL1        0.1118
     15 C           6.1660    2.2729    0.0000 C.3     1  UNL1        0.1117
     16 C           6.6660    1.4069    0.0000 C.3     1  UNL1        0.1105
     17 C           5.5321   -0.8251    0.0000 C.ar    1  UNL1        0.0055
     18 C           3.8000   -0.8251    0.0000 C.ar    1  UNL1        0.0052
     19 C           5.5321   -1.8251    0.0000 C.ar    1  UNL1        0.0700
     20 C           3.8000   -1.8251    0.0000 C.ar    1  UNL1        0.0700
     21 C           7.6660    1.4069    0.0000 C.3     1  UNL1        0.0729
     22 C           4.6660   -2.3251    0.0000 C.2     1  UNL1        0.2009
     23 C           6.4260   -0.2905    0.0000 C.ar    1  UNL1       -0.0492
     24 C           2.9061   -0.2905    0.0000 C.ar    1  UNL1       -0.0545
     25 C           6.4260   -2.3598    0.0000 C.ar    1  UNL1        0.1284
     26 C           2.9061   -2.3598    0.0000 C.ar    1  UNL1        0.1280
     27 C           7.3321   -0.8043    0.0000 C.ar    1  UNL1       -0.0183
     28 C           7.3321   -1.8459    0.0000 C.ar    1  UNL1       -0.0141
     29 C           2.0000   -0.8043    0.0000 C.ar    1  UNL1       -0.0579
     30 C           2.0000   -1.8459    0.0000 C.ar    1  UNL1       -0.0194
     31 C           8.1962   -0.3010    0.0000 C.3     1  UNL1        0.0694
     32 H           5.5910   -0.1952    0.0000 H       1  UNL1        0.0659
     33 H           4.3560    0.8700    0.0000 H       1  UNL1        0.0647
     34 H           4.5460    2.2729    0.0000 H       1  UNL1        0.0647
     35 H           6.7860    2.2729    0.0000 H       1  UNL1        0.0647
     36 H           6.9760    0.8700    0.0000 H       1  UNL1        0.0646
     37 H           7.5584    0.7963    0.0000 H       1  UNL1        0.0584
     38 H           8.2486    1.1949    0.0000 H       1  UNL1        0.0584
     39 H           3.5460    0.5409    0.0000 H       1  UNL1        0.2112
     40 H           6.4188    0.3295    0.0000 H       1  UNL1        0.0625
     41 H           3.3560    1.9439    0.0000 H       1  UNL1        0.2100
     42 H           2.9132    0.3295    0.0000 H       1  UNL1        0.0622
     43 H           4.9760    3.6759    0.0000 H       1  UNL1        0.2100
     44 H           6.3560    3.6759    0.0000 H       1  UNL1        0.2100
     45 H           7.8678   -2.1580    0.0000 H       1  UNL1        0.0658
     46 H           1.4643   -0.4922    0.0000 H       1  UNL1        0.0619
     47 H           1.4643   -2.1580    0.0000 H       1  UNL1        0.0654
     48 H           8.7860    2.2729    0.0000 H       1  UNL1        0.2095
     49 H           8.5929    0.1755    0.0000 H       1  UNL1        0.0607
     50 H           7.7958    0.1724    0.0000 H       1  UNL1        0.0607
     51 H           6.9478   -3.6759    0.0000 H       1  UNL1        0.2922
     52 H           2.3843   -3.6759    0.0000 H       1  UNL1        0.2922
     53 H           9.5998   -0.4856    0.0000 H       1  UNL1        0.2098
@<TRIPOS>BOND
     1     1    11    1
     2     1    16    1
     3    12     2    1
     4     2    39    1
     5    13     3    1
     6     3    41    1
     7    14     4    1
     8     4    43    1
     9    15     5    1
    10     5    44    1
    11     6    21    1
    12     6    48    1
    13     7    22    2
    14     8    25    1
    15     8    51    1
    16     9    26    1
    17     9    52    1
    18    10    31    1
    19    10    53    1
    20    11    12    1
    21    11    13    1
    22    11    32    1
    23    12    17    1
    24    12    18    1
    25    13    14    1
    26    13    33    1
    27    14    15    1
    28    14    34    1
    29    15    16    1
    30    15    35    1
    31    16    21    1
    32    16    36    1
    33    17    19   ar
    34    17    23   ar
    35    18    20   ar
    36    18    24   ar
    37    19    22    1
    38    19    25   ar
    39    20    22    1
    40    20    26   ar
    41    21    37    1
    42    21    38    1
    43    23    27   ar
    44    23    40    1
    45    24    29   ar
    46    24    42    1
    47    25    28   ar
    48    26    30   ar
    49    27    28   ar
    50    27    31    1
    51    28    45    1
    52    29    30   ar
    53    29    46    1
    54    30    47    1
    55    31    49    1
    56    31    50    1
