@<TRIPOS>MOLECULE
IMPHY002884
 17 17 0 0 0
SMALL
GASTEIGER

@<TRIPOS>ATOM
      1 O           2.8660    0.2500    0.0000 O.3     1  UNL1       -0.4929
      2 O           5.4641    1.7500    0.0000 O.co2   1  UNL1       -0.5445
      3 O           3.7320    1.7500    0.0000 O.co2   1  UNL1       -0.5445
      4 N           4.5981   -1.7500    0.0000 N.ar    1  UNL1       -0.2596
      5 C           4.5981    0.2500    0.0000 C.ar    1  UNL1        0.0419
      6 C           3.7320   -0.2500    0.0000 C.ar    1  UNL1        0.1469
      7 C           5.4641   -0.2500    0.0000 C.ar    1  UNL1       -0.0312
      8 C           3.7320   -1.2500    0.0000 C.ar    1  UNL1        0.0698
      9 C           5.4641   -1.2500    0.0000 C.ar    1  UNL1        0.0284
     10 C           4.5981    1.2500    0.0000 C.2     1  UNL1        0.0753
     11 C           2.0000   -0.2500    0.0000 C.3     1  UNL1        0.0789
     12 H           6.0010    0.0600    0.0000 H       1  UNL1        0.0640
     13 H           3.1951   -1.5600    0.0000 H       1  UNL1        0.0867
     14 H           6.0010   -1.5600    0.0000 H       1  UNL1        0.0830
     15 H           1.6900    0.2869    0.0000 H       1  UNL1        0.0660
     16 H           1.4631   -0.5600    0.0000 H       1  UNL1        0.0660
     17 H           2.3100   -0.7869    0.0000 H       1  UNL1        0.0660
@<TRIPOS>UNITY_ATOM_ATTR
2 1
charge -1
@<TRIPOS>BOND
     1     1     6    1
     2     1    11    1
     3     2    10   ar
     4     3    10   ar
     5     4     8   ar
     6     4     9   ar
     7     5     6   ar
     8     5     7   ar
     9     5    10    1
    10     6     8   ar
    11     7     9   ar
    12     7    12    1
    13     8    13    1
    14     9    14    1
    15    11    15    1
    16    11    16    1
    17    11    17    1
