@<TRIPOS>MOLECULE
IMPHY010671
 108 119 0 0 0
SMALL
GASTEIGER

@<TRIPOS>ATOM
      1 O           6.6578    5.7363    0.0000 O.3     1  UNL1       -0.3663
      2 O          10.5614   -0.6905    0.0000 O.3     1  UNL1       -0.4839
      3 O          10.2170   -2.9168    0.0000 O.3     1  UNL1       -0.3875
      4 O          11.0482    6.1734    0.0000 O.3     1  UNL1       -0.4646
      5 O          11.9142    4.6734    0.0000 O.2     1  UNL1       -0.2453
      6 O           7.7207   -5.6941    0.0000 O.3     1  UNL1       -0.4646
      7 O           2.9530   -2.7212    0.0000 O.3     1  UNL1       -0.4896
      8 O           6.0245   -5.3435    0.0000 O.2     1  UNL1       -0.2453
      9 O           4.1127    0.8326    0.0000 O.3     1  UNL1       -0.5032
     10 O           2.4978   -0.6066    0.0000 O.3     1  UNL1       -0.4885
     11 N           7.5562    3.1388    0.0000 N.3     1  UNL1       -0.2950
     12 N           7.8797   -0.8351    0.0000 N.3     1  UNL1       -0.2872
     13 N          10.9192    3.0064    0.0000 N.pl3   1  UNL1       -0.3163
     14 N           5.2399   -3.4106    0.0000 N.pl3   1  UNL1       -0.3135
     15 C           8.4501    4.6734    0.0000 C.3     1  UNL1        0.0201
     16 C           8.4501    3.6734    0.0000 C.3     1  UNL1        0.0338
     17 C           9.3161    3.1734    0.0000 C.3     1  UNL1        0.0531
     18 C           7.5562    5.2081    0.0000 C.3     1  UNL1        0.0938
     19 C           6.6501    4.6943    0.0000 C.3     1  UNL1        0.0985
     20 C           7.6505   -1.8825    0.0000 C.3     1  UNL1        0.0344
     21 C           8.4485   -2.5985    0.0000 C.3     1  UNL1        0.0210
     22 C           8.9510    2.2491    0.0000 C.3     1  UNL1       -0.0238
     23 C           6.6501    3.6526    0.0000 C.3     1  UNL1        0.0280
     24 C           9.3161    5.1734    0.0000 C.3     1  UNL1       -0.0098
     25 C           6.5837   -2.2130    0.0000 C.3     1  UNL1        0.0534
     26 C           7.9574    2.2296    0.0000 C.3     1  UNL1        0.0005
     27 C          10.1821    3.6734    0.0000 C.2     1  UNL1        0.0304
     28 C           9.5253    2.2016    0.0000 C.ar    1  UNL1       -0.0124
     29 C           8.9038   -0.5177    0.0000 C.3     1  UNL1        0.0790
     30 C           8.4501    5.6734    0.0000 C.3     1  UNL1       -0.0460
     31 C           9.4651   -2.2576    0.0000 C.3     1  UNL1        0.1011
     32 C           9.6700   -1.2052    0.0000 C.3     1  UNL1        0.1460
     33 C          10.1821    4.6734    0.0000 C.2     1  UNL1        0.0551
     34 C           6.1481   -1.2379    0.0000 C.3     1  UNL1       -0.0237
     35 C           6.8798   -0.4600    0.0000 C.3     1  UNL1        0.0011
     36 C           8.2351   -3.6948    0.0000 C.3     1  UNL1       -0.0098
     37 C           9.3192    0.4241    0.0000 C.ar    1  UNL1        0.0154
     38 C          10.5140    2.0986    0.0000 C.ar    1  UNL1        0.0388
     39 C           6.3450   -3.3040    0.0000 C.2     1  UNL1        0.0305
     40 C           8.9046    1.3729    0.0000 C.ar    1  UNL1       -0.0476
     41 C           9.1928   -3.2664    0.0000 C.3     1  UNL1       -0.0460
     42 C           5.6241   -1.6547    0.0000 C.ar    1  UNL1       -0.0057
     43 C           7.1762   -4.0499    0.0000 C.2     1  UNL1        0.0551
     44 C          10.3491    0.3167    0.0000 C.ar    1  UNL1        0.1277
     45 C           9.3161    6.1734    0.0000 C.3     1  UNL1       -0.0646
     46 C          10.9506    1.1596    0.0000 C.ar    1  UNL1        0.0019
     47 C           4.7953   -2.3933    0.0000 C.ar    1  UNL1        0.0815
     48 C          11.0482    5.1734    0.0000 C.2     1  UNL1        0.3364
     49 C           8.9866   -4.2449    0.0000 C.3     1  UNL1       -0.0646
     50 C           5.4070   -0.5188    0.0000 C.ar    1  UNL1       -0.0104
     51 C           6.9738   -5.0292    0.0000 C.2     1  UNL1        0.3364
     52 C           3.6918   -2.0473    0.0000 C.ar    1  UNL1        0.1866
     53 C           4.3118   -0.1474    0.0000 C.ar    1  UNL1        0.1626
     54 C           3.4485   -0.9168    0.0000 C.ar    1  UNL1        0.2052
     55 C          11.9142    6.6734    0.0000 C.3     1  UNL1        0.0820
     56 C           7.5182   -6.6734    0.0000 C.3     1  UNL1        0.0820
     57 C           2.0000   -2.4183    0.0000 C.3     1  UNL1        0.0791
     58 C           2.2911    0.3718    0.0000 C.3     1  UNL1        0.0791
     59 H           7.7140    4.0984    0.0000 H       1  UNL1        0.0481
     60 H           7.8724    5.7414    0.0000 H       1  UNL1        0.0628
     61 H           6.0301    4.6966    0.0000 H       1  UNL1        0.0635
     62 H           7.4688   -2.7128    0.0000 H       1  UNL1        0.0481
     63 H           8.8815    1.6330    0.0000 H       1  UNL1        0.0290
     64 H           9.5526    2.0992    0.0000 H       1  UNL1        0.0290
     65 H           6.0392    3.7587    0.0000 H       1  UNL1        0.0453
     66 H           6.4410    3.0689    0.0000 H       1  UNL1        0.0453
     67 H           9.7146    5.6484    0.0000 H       1  UNL1        0.0323
     68 H           8.9176    5.6484    0.0000 H       1  UNL1        0.0323
     69 H           7.3622    2.0561    0.0000 H       1  UNL1        0.0427
     70 H           8.0510    1.6167    0.0000 H       1  UNL1        0.0427
     71 H           8.3383    0.1168    0.0000 H       1  UNL1        0.0551
     72 H           8.2380    6.2560    0.0000 H       1  UNL1        0.0269
     73 H           7.8395    5.5658    0.0000 H       1  UNL1        0.0269
     74 H          10.0517   -2.0570    0.0000 H       1  UNL1        0.0637
     75 H          10.3619   -1.6989    0.0000 H       1  UNL1        0.0779
     76 H           5.7563   -0.7574    0.0000 H       1  UNL1        0.0290
     77 H           5.6202   -1.5631    0.0000 H       1  UNL1        0.0290
     78 H           7.1720    0.0868    0.0000 H       1  UNL1        0.0427
     79 H           6.3762   -0.0983    0.0000 H       1  UNL1        0.0427
     80 H           8.3288   -4.3076    0.0000 H       1  UNL1        0.0323
     81 H           8.8550   -3.7074    0.0000 H       1  UNL1        0.0323
     82 H          11.5258    3.1342    0.0000 H       1  UNL1        0.1519
     83 H           8.2887    1.4443    0.0000 H       1  UNL1        0.0626
     84 H           9.7681   -3.4976    0.0000 H       1  UNL1        0.0269
     85 H           9.5205   -2.7400    0.0000 H       1  UNL1        0.0269
     86 H           9.6261    5.6365    0.0000 H       1  UNL1        0.0230
     87 H           9.8530    6.4834    0.0000 H       1  UNL1        0.0230
     88 H           9.0061    6.7104    0.0000 H       1  UNL1        0.0230
     89 H          11.5679    1.1025    0.0000 H       1  UNL1        0.0673
     90 H           4.9258   -3.9451    0.0000 H       1  UNL1        0.1520
     91 H          10.8041   -2.7174    0.0000 H       1  UNL1        0.2100
     92 H           8.3799   -4.1170    0.0000 H       1  UNL1        0.0230
     93 H           8.8588   -4.8515    0.0000 H       1  UNL1        0.0230
     94 H           9.5933   -4.3727    0.0000 H       1  UNL1        0.0230
     95 H           5.8746   -0.1117    0.0000 H       1  UNL1        0.0659
     96 H          12.2242    6.1365    0.0000 H       1  UNL1        0.0661
     97 H          12.4511    6.9834    0.0000 H       1  UNL1        0.0661
     98 H          11.6042    7.2104    0.0000 H       1  UNL1        0.0661
     99 H           3.5248    1.0295    0.0000 H       1  UNL1        0.2923
    100 H           6.9111   -6.5479    0.0000 H       1  UNL1        0.0661
    101 H           7.3927   -7.2806    0.0000 H       1  UNL1        0.0661
    102 H           8.1254   -6.7990    0.0000 H       1  UNL1        0.0661
    103 H           2.1878   -1.8275    0.0000 H       1  UNL1        0.0660
    104 H           1.4091   -2.2306    0.0000 H       1  UNL1        0.0660
    105 H           1.8122   -3.0092    0.0000 H       1  UNL1        0.0660
    106 H           2.8977    0.5000    0.0000 H       1  UNL1        0.0660
    107 H           2.1630    0.9785    0.0000 H       1  UNL1        0.0660
    108 H           1.6845    0.2437    0.0000 H       1  UNL1        0.0660
@<TRIPOS>BOND
     1    18     1    1
     2    19     1    1
     3     2    32    1
     4     2    44    1
     5    31     3    1
     6     3    91    1
     7     4    48    1
     8     4    55    1
     9     5    48    2
    10     6    51    1
    11     6    56    1
    12     7    52    1
    13     7    57    1
    14     8    51    2
    15     9    53    1
    16     9    99    1
    17    10    54    1
    18    10    58    1
    19    11    16    1
    20    11    23    1
    21    11    26    1
    22    12    20    1
    23    12    29    1
    24    12    35    1
    25    13    27    1
    26    13    38    1
    27    13    82    1
    28    14    39    1
    29    14    47    1
    30    14    90    1
    31    15    16    1
    32    15    18    1
    33    15    24    1
    34    15    30    1
    35    16    17    1
    36    16    59    1
    37    17    22    1
    38    17    27    1
    39    17    28    1
    40    18    19    1
    41    18    60    1
    42    19    23    1
    43    19    61    1
    44    20    21    1
    45    20    25    1
    46    20    62    1
    47    21    31    1
    48    21    36    1
    49    21    41    1
    50    22    26    1
    51    22    63    1
    52    22    64    1
    53    23    65    1
    54    23    66    1
    55    24    33    1
    56    24    67    1
    57    24    68    1
    58    25    34    1
    59    25    39    1
    60    25    42    1
    61    26    69    1
    62    26    70    1
    63    27    33    2
    64    28    38   ar
    65    28    40   ar
    66    29    32    1
    67    29    37    1
    68    29    71    1
    69    30    45    1
    70    30    72    1
    71    30    73    1
    72    31    32    1
    73    31    74    1
    74    32    75    1
    75    33    48    1
    76    34    35    1
    77    34    76    1
    78    34    77    1
    79    35    78    1
    80    35    79    1
    81    36    43    1
    82    36    80    1
    83    36    81    1
    84    37    40   ar
    85    37    44   ar
    86    38    46   ar
    87    39    43    2
    88    40    83    1
    89    41    49    1
    90    41    84    1
    91    41    85    1
    92    42    47   ar
    93    42    50   ar
    94    43    51    1
    95    44    46   ar
    96    45    86    1
    97    45    87    1
    98    45    88    1
    99    46    89    1
   100    47    52   ar
   101    49    92    1
   102    49    93    1
   103    49    94    1
   104    50    53   ar
   105    50    95    1
   106    52    54   ar
   107    53    54   ar
   108    55    96    1
   109    55    97    1
   110    55    98    1
   111    56   100    1
   112    56   101    1
   113    56   102    1
   114    57   103    1
   115    57   104    1
   116    57   105    1
   117    58   106    1
   118    58   107    1
   119    58   108    1
