@<TRIPOS>MOLECULE
IMPHY013358
 41 40 0 0 0
SMALL
GASTEIGER

@<TRIPOS>ATOM
      1 O           4.5981   -1.5950    0.0000 O.3     1  UNL1       -0.3878
      2 O          16.7224    1.4050    0.0000 O.3     1  UNL1       -0.3950
      3 C           3.7320   -0.0950    0.0000 C.3     1  UNL1       -0.0235
      4 C           4.5981   -0.5950    0.0000 C.3     1  UNL1        0.0736
      5 C           2.8660   -0.5950    0.0000 C.3     1  UNL1       -0.0533
      6 C           2.0000   -0.0950    0.0000 C.3     1  UNL1       -0.0652
      7 C           5.4641   -0.0950    0.0000 C.2     1  UNL1       -0.0559
      8 C           6.3301   -0.5950    0.0000 C.2     1  UNL1       -0.0633
      9 C          14.9904    1.4050    0.0000 C.3     1  UNL1       -0.0188
     10 C          14.1244    1.9050    0.0000 C.3     1  UNL1        0.0121
     11 C          15.8564    1.9050    0.0000 C.3     1  UNL1        0.0451
     12 C           7.1962   -0.0950    0.0000 C.2     1  UNL1       -0.0620
     13 C           8.0622   -0.5950    0.0000 C.2     1  UNL1       -0.0612
     14 C          13.2583    1.4050    0.0000 C.1     1  UNL1       -0.0883
     15 C           8.9282   -0.0950    0.0000 C.2     1  UNL1       -0.0535
     16 C           9.7942   -0.5950    0.0000 C.2     1  UNL1       -0.0106
     17 C          12.3923    0.9050    0.0000 C.1     1  UNL1       -0.0145
     18 C          10.6603   -0.0950    0.0000 C.1     1  UNL1       -0.0603
     19 C          11.5263    0.4050    0.0000 C.1     1  UNL1       -0.0101
     20 H           4.1306    0.3799    0.0000 H       1  UNL1        0.0293
     21 H           3.3335    0.3799    0.0000 H       1  UNL1        0.0293
     22 H           5.1350   -0.9050    0.0000 H       1  UNL1        0.0638
     23 H           2.4675   -1.0700    0.0000 H       1  UNL1        0.0264
     24 H           3.2646   -1.0700    0.0000 H       1  UNL1        0.0264
     25 H           2.3100    0.4419    0.0000 H       1  UNL1        0.0230
     26 H           1.4631    0.2150    0.0000 H       1  UNL1        0.0230
     27 H           1.6900   -0.6319    0.0000 H       1  UNL1        0.0230
     28 H           5.4641    0.5250    0.0000 H       1  UNL1        0.0597
     29 H           4.0611   -1.9050    0.0000 H       1  UNL1        0.2102
     30 H           6.3301   -1.2150    0.0000 H       1  UNL1        0.0615
     31 H          14.5919    0.9301    0.0000 H       1  UNL1        0.0296
     32 H          15.3889    0.9301    0.0000 H       1  UNL1        0.0296
     33 H          14.5229    2.3800    0.0000 H       1  UNL1        0.0398
     34 H          13.7258    2.3800    0.0000 H       1  UNL1        0.0398
     35 H          16.2549    2.3800    0.0000 H       1  UNL1        0.0557
     36 H          15.4579    2.3800    0.0000 H       1  UNL1        0.0557
     37 H           7.1962    0.5250    0.0000 H       1  UNL1        0.0618
     38 H           8.0622   -1.2150    0.0000 H       1  UNL1        0.0618
     39 H          17.2594    1.7150    0.0000 H       1  UNL1        0.2094
     40 H           8.9282    0.5250    0.0000 H       1  UNL1        0.0624
     41 H           9.7942   -1.2150    0.0000 H       1  UNL1        0.0712
@<TRIPOS>BOND
     1     4     1    1
     2     1    29    1
     3     2    11    1
     4     2    39    1
     5     3     4    1
     6     3     5    1
     7     3    20    1
     8     3    21    1
     9     4     7    1
    10     4    22    1
    11     5     6    1
    12     5    23    1
    13     5    24    1
    14     6    25    1
    15     6    26    1
    16     6    27    1
    17     7     8    2
    18     7    28    1
    19     8    12    1
    20     8    30    1
    21     9    10    1
    22     9    11    1
    23     9    31    1
    24     9    32    1
    25    10    14    1
    26    10    33    1
    27    10    34    1
    28    11    35    1
    29    11    36    1
    30    12    13    2
    31    12    37    1
    32    13    15    1
    33    13    38    1
    34    14    17    3
    35    15    16    2
    36    15    40    1
    37    16    18    1
    38    16    41    1
    39    17    19    1
    40    18    19    3
