@<TRIPOS>MOLECULE
IMPHY010821
 49 53 0 0 0
SMALL
GASTEIGER

@<TRIPOS>ATOM
      1 O           2.9894    0.6230    0.0000 O.3     1  UNL1       -0.4560
      2 O           6.8383   -2.5096    0.0000 O.3     1  UNL1       -0.4604
      3 O           7.1702   -1.2134    0.0000 O.3     1  UNL1       -0.3908
      4 O           2.7861   -2.7586    0.0000 O.3     1  UNL1       -0.3877
      5 O           2.7075   -0.4293    0.0000 O.2     1  UNL1       -0.2502
      6 O           6.1779   -4.0117    0.0000 O.2     1  UNL1       -0.2453
      7 O           2.0000    3.6050    0.0000 O.2     1  UNL1       -0.4706
      8 C           4.5721   -0.7134    0.0000 C.3     1  UNL1       -0.0069
      9 C           4.5721    0.2866    0.0000 C.3     1  UNL1        0.0779
     10 C           5.4381   -1.2134    0.0000 C.3     1  UNL1        0.0661
     11 C           5.4381    0.7866    0.0000 C.3     1  UNL1       -0.0253
     12 C           6.3041   -0.7134    0.0000 C.3     1  UNL1        0.0687
     13 C           6.3041    0.2866    0.0000 C.3     1  UNL1       -0.0223
     14 C           3.6621   -1.2203    0.0000 C.3     1  UNL1       -0.0184
     15 C           4.4676    1.2811    0.0000 C.3     1  UNL1        0.0050
     16 C           5.4542   -2.2550    0.0000 C.2     1  UNL1        0.0472
     17 C           6.4536   -1.4157    0.0000 C.3     1  UNL1        0.1052
     18 C           3.6585   -0.1202    0.0000 C.2     1  UNL1        0.3146
     19 C           3.6541   -2.2619    0.0000 C.3     1  UNL1        0.0744
     20 C           3.4894    1.4890    0.0000 C.3     1  UNL1        0.1320
     21 C           5.4381    1.7866    0.0000 C.3     1  UNL1       -0.0613
     22 C           4.5561   -2.7827    0.0000 C.2     1  UNL1       -0.0452
     23 C           6.1608   -3.0118    0.0000 C.2     1  UNL1        0.3357
     24 C           3.0827    2.4025    0.0000 C.ar    1  UNL1        0.0304
     25 C           3.5827    3.2686    0.0000 C.ar    1  UNL1       -0.0172
     26 C           2.1045    2.6104    0.0000 C.ar    1  UNL1        0.0983
     27 C           2.9136    4.0117    0.0000 C.ar    1  UNL1        0.0921
     28 H           3.8393   -0.2828    0.0000 H       1  UNL1        0.0323
     29 H           5.9751    1.0966    0.0000 H       1  UNL1        0.0310
     30 H           6.8411   -0.4034    0.0000 H       1  UNL1        0.0603
     31 H           6.9147    0.1789    0.0000 H       1  UNL1        0.0293
     32 H           6.5162    0.8692    0.0000 H       1  UNL1        0.0293
     33 H           3.4575   -0.6350    0.0000 H       1  UNL1        0.0296
     34 H           3.0504   -1.3217    0.0000 H       1  UNL1        0.0296
     35 H           5.0876    1.2811    0.0000 H       1  UNL1        0.0315
     36 H           4.5324    1.8977    0.0000 H       1  UNL1        0.0315
     37 H           7.0657   -1.3170    0.0000 H       1  UNL1        0.0707
     38 H           6.4650   -0.7958    0.0000 H       1  UNL1        0.0707
     39 H           3.6529   -2.8819    0.0000 H       1  UNL1        0.0638
     40 H           2.8703    1.5214    0.0000 H       1  UNL1        0.0786
     41 H           6.0581    1.7866    0.0000 H       1  UNL1        0.0233
     42 H           5.4381    2.4066    0.0000 H       1  UNL1        0.0233
     43 H           4.8181    1.7866    0.0000 H       1  UNL1        0.0233
     44 H           4.5585   -3.4027    0.0000 H       1  UNL1        0.0603
     45 H           7.7071   -0.9034    0.0000 H       1  UNL1        0.2098
     46 H           2.7837   -3.3786    0.0000 H       1  UNL1        0.2102
     47 H           4.1993    3.3334    0.0000 H       1  UNL1        0.0653
     48 H           1.6438    2.1956    0.0000 H       1  UNL1        0.1033
     49 H           3.0424    4.6182    0.0000 H       1  UNL1        0.1029
@<TRIPOS>BOND
     1     1    18    1
     2     1    20    1
     3     2    17    1
     4     2    23    1
     5    12     3    1
     6     3    45    1
     7    19     4    1
     8     4    46    1
     9     5    18    2
    10     6    23    2
    11     7    26   ar
    12     7    27   ar
    13     8     9    1
    14     8    10    1
    15     8    14    1
    16     8    28    1
    17     9    11    1
    18     9    15    1
    19     9    18    1
    20    10    12    1
    21    10    16    1
    22    10    17    1
    23    11    13    1
    24    11    21    1
    25    11    29    1
    26    12    13    1
    27    12    30    1
    28    13    31    1
    29    13    32    1
    30    14    19    1
    31    14    33    1
    32    14    34    1
    33    15    20    1
    34    15    35    1
    35    15    36    1
    36    16    22    2
    37    16    23    1
    38    17    37    1
    39    17    38    1
    40    19    22    1
    41    19    39    1
    42    20    24    1
    43    20    40    1
    44    21    41    1
    45    21    42    1
    46    21    43    1
    47    22    44    1
    48    24    25   ar
    49    24    26   ar
    50    25    27   ar
    51    25    47    1
    52    26    48    1
    53    27    49    1
