@<TRIPOS>MOLECULE
IMPHY004895
 39 41 0 0 0
SMALL
GASTEIGER

@<TRIPOS>ATOM
      1 O           6.4810    2.9033    0.0000 O.3     1  UNL1       -0.3612
      2 O           3.7163    2.7797    0.0000 O.3     1  UNL1       -0.4548
      3 O           2.0000    2.3218    0.0000 O.2     1  UNL1       -0.2453
      4 O           4.4900   -2.2968    0.0000 O.3     1  UNL1       -0.3907
      5 C           6.2727    1.9248    0.0000 C.3     1  UNL1        0.0971
      6 C           5.5296    2.5939    0.0000 C.3     1  UNL1        0.1254
      7 C           4.5785    2.2849    0.0000 C.3     1  UNL1        0.1390
      8 C           4.3706    1.3067    0.0000 C.3     1  UNL1        0.0303
      9 C           6.0648    0.9466    0.0000 C.3     1  UNL1       -0.0180
     10 C           7.0158    1.2556    0.0000 C.3     1  UNL1       -0.0332
     11 C           5.1137    0.6376    0.0000 C.3     1  UNL1       -0.0388
     12 C           6.8079    0.2775    0.0000 C.3     1  UNL1       -0.0318
     13 C           3.3817    1.2054    0.0000 C.2     1  UNL1        0.0362
     14 C           4.9058   -0.3405    0.0000 C.3     1  UNL1       -0.0289
     15 C           2.9782    2.1139    0.0000 C.2     1  UNL1        0.3353
     16 C           6.6000   -0.7007    0.0000 C.2     1  UNL1       -0.0825
     17 C           5.6490   -1.0097    0.0000 C.2     1  UNL1       -0.0484
     18 C           2.8802    0.3402    0.0000 C.2     1  UNL1       -0.0883
     19 C           5.4411   -1.9878    0.0000 C.3     1  UNL1        0.0653
     20 H           5.2668    3.4023    0.0000 H       1  UNL1        0.0662
     21 H           4.6662    3.1303    0.0000 H       1  UNL1        0.0767
     22 H           4.1069    0.4987    0.0000 H       1  UNL1        0.0388
     23 H           5.4899    1.1789    0.0000 H       1  UNL1        0.0297
     24 H           5.7362    0.4208    0.0000 H       1  UNL1        0.0297
     25 H           6.6010    0.7949    0.0000 H       1  UNL1        0.0258
     26 H           7.4766    0.8408    0.0000 H       1  UNL1        0.0258
     27 H           7.4307    1.7164    0.0000 H       1  UNL1        0.0258
     28 H           5.6886    0.4053    0.0000 H       1  UNL1        0.0275
     29 H           5.4423    1.1634    0.0000 H       1  UNL1        0.0275
     30 H           7.3828    0.0452    0.0000 H       1  UNL1        0.0308
     31 H           7.1365    0.8033    0.0000 H       1  UNL1        0.0308
     32 H           4.3310   -0.1083    0.0000 H       1  UNL1        0.0311
     33 H           4.5773   -0.8663    0.0000 H       1  UNL1        0.0311
     34 H           7.0608   -1.1155    0.0000 H       1  UNL1        0.0572
     35 H           2.2602    0.3413    0.0000 H       1  UNL1        0.0540
     36 H           3.1893   -0.1972    0.0000 H       1  UNL1        0.0540
     37 H           5.5273   -2.6018    0.0000 H       1  UNL1        0.0604
     38 H           6.0607   -2.0095    0.0000 H       1  UNL1        0.0604
     39 H           4.3611   -2.9033    0.0000 H       1  UNL1        0.2098
@<TRIPOS>BOND
     1     1     5    1
     2     1     6    1
     3     2     7    1
     4     2    15    1
     5     3    15    2
     6     4    19    1
     7     4    39    1
     8     5     6    1
     9     5     9    1
    10     5    10    1
    11     6     7    1
    12     6    20    1
    13     7     8    1
    14     7    21    1
    15     8    11    1
    16     8    13    1
    17     8    22    1
    18     9    12    1
    19     9    23    1
    20     9    24    1
    21    10    25    1
    22    10    26    1
    23    10    27    1
    24    11    14    1
    25    11    28    1
    26    11    29    1
    27    12    16    1
    28    12    30    1
    29    12    31    1
    30    13    15    1
    31    13    18    2
    32    14    17    1
    33    14    32    1
    34    14    33    1
    35    16    17    2
    36    16    34    1
    37    17    19    1
    38    18    35    1
    39    18    36    1
    40    19    37    1
    41    19    38    1
