@<TRIPOS>MOLECULE
IMPHY007334
 27 27 0 0 0
SMALL
GASTEIGER

@<TRIPOS>ATOM
      1 O           5.1213    1.4483    0.0000 O.2     1  UNL1       -0.2930
      2 C           3.0000   -1.6730    0.0000 C.3     1  UNL1       -0.0286
      3 C           3.0000   -0.6730    0.0000 C.3     1  UNL1       -0.0173
      4 C           2.0000   -1.6730    0.0000 C.3     1  UNL1       -0.0468
      5 C           2.0000   -0.6730    0.0000 C.3     1  UNL1       -0.0458
      6 C           3.0000   -2.6730    0.0000 C.3     1  UNL1       -0.0593
      7 C           4.0000   -1.6730    0.0000 C.3     1  UNL1       -0.0593
      8 C           3.7071    0.0341    0.0000 C.2     1  UNL1       -0.0771
      9 C           3.4483    1.0000    0.0000 C.2     1  UNL1       -0.0231
     10 C           4.1554    1.7071    0.0000 C.2     1  UNL1        0.1528
     11 C           3.8966    2.6730    0.0000 C.3     1  UNL1       -0.0020
     12 H           2.7627   -0.1002    0.0000 H       1  UNL1        0.0348
     13 H           1.3800   -1.6730    0.0000 H       1  UNL1        0.0271
     14 H           2.0000   -2.2930    0.0000 H       1  UNL1        0.0271
     15 H           2.0000   -0.0530    0.0000 H       1  UNL1        0.0271
     16 H           1.3800   -0.6730    0.0000 H       1  UNL1        0.0271
     17 H           4.0000   -2.2930    0.0000 H       1  UNL1        0.0235
     18 H           2.3800   -2.6730    0.0000 H       1  UNL1        0.0235
     19 H           4.6200   -1.6730    0.0000 H       1  UNL1        0.0235
     20 H           4.0000   -1.0530    0.0000 H       1  UNL1        0.0235
     21 H           3.0000   -3.2930    0.0000 H       1  UNL1        0.0235
     22 H           3.6200   -2.6730    0.0000 H       1  UNL1        0.0235
     23 H           4.3060   -0.1264    0.0000 H       1  UNL1        0.0576
     24 H           2.8494    1.1605    0.0000 H       1  UNL1        0.0649
     25 H           4.4954    2.8335    0.0000 H       1  UNL1        0.0309
     26 H           3.7361    3.2719    0.0000 H       1  UNL1        0.0309
     27 H           3.2977    2.5126    0.0000 H       1  UNL1        0.0309
@<TRIPOS>BOND
     1     1    10    2
     2     2     3    1
     3     2     4    1
     4     2     6    1
     5     2     7    1
     6     3     5    1
     7     3     8    1
     8     3    12    1
     9     4     5    1
    10     4    13    1
    11     4    14    1
    12     5    15    1
    13     5    16    1
    14     6    18    1
    15     6    21    1
    16     6    22    1
    17     7    17    1
    18     7    19    1
    19     7    20    1
    20     8     9    2
    21     8    23    1
    22     9    10    1
    23     9    24    1
    24    10    11    1
    25    11    25    1
    26    11    26    1
    27    11    27    1
