@<TRIPOS>MOLECULE
IMPHY017513
 32 32 0 0 0
SMALL
GASTEIGER

@<TRIPOS>ATOM
      1 O           2.0000    0.5000    0.0000 O.3     1  UNL1       -0.3749
      2 C           2.8660    0.0000    0.0000 C.3     1  UNL1        0.0867
      3 C           3.7320    0.5000    0.0000 C.3     1  UNL1       -0.0040
      4 C           2.8660   -1.0000    0.0000 C.ar    1  UNL1       -0.0186
      5 C           3.7320    1.5000    0.0000 C.2     1  UNL1       -0.0825
      6 C           2.0000   -1.5000    0.0000 C.ar    1  UNL1       -0.0561
      7 C           3.7320   -1.5000    0.0000 C.ar    1  UNL1       -0.0561
      8 C           4.5981    2.0000    0.0000 C.2     1  UNL1       -0.0795
      9 C           2.0000   -2.5000    0.0000 C.ar    1  UNL1       -0.0614
     10 C           3.7320   -2.5000    0.0000 C.ar    1  UNL1       -0.0614
     11 C           4.5981    3.0000    0.0000 C.3     1  UNL1       -0.0440
     12 C           5.4641    1.5000    0.0000 C.3     1  UNL1       -0.0440
     13 C           2.8660   -3.0000    0.0000 C.ar    1  UNL1       -0.0617
     14 C           2.0000    1.5000    0.0000 C.3     1  UNL1        0.0372
     15 H           2.8660    0.6200    0.0000 H       1  UNL1        0.0649
     16 H           3.9441   -0.0826    0.0000 H       1  UNL1        0.0336
     17 H           4.3426    0.6077    0.0000 H       1  UNL1        0.0336
     18 H           3.1951    1.8100    0.0000 H       1  UNL1        0.0572
     19 H           1.4631   -1.1900    0.0000 H       1  UNL1        0.0621
     20 H           4.2690   -1.1900    0.0000 H       1  UNL1        0.0621
     21 H           1.4631   -2.8100    0.0000 H       1  UNL1        0.0618
     22 H           4.2690   -2.8100    0.0000 H       1  UNL1        0.0618
     23 H           5.2181    3.0000    0.0000 H       1  UNL1        0.0274
     24 H           4.5981    3.6200    0.0000 H       1  UNL1        0.0274
     25 H           3.9781    3.0000    0.0000 H       1  UNL1        0.0274
     26 H           5.1541    0.9631    0.0000 H       1  UNL1        0.0274
     27 H           6.0010    1.1900    0.0000 H       1  UNL1        0.0274
     28 H           5.7741    2.0369    0.0000 H       1  UNL1        0.0274
     29 H           2.8660   -3.6200    0.0000 H       1  UNL1        0.0618
     30 H           2.6200    1.5000    0.0000 H       1  UNL1        0.0524
     31 H           2.0000    2.1200    0.0000 H       1  UNL1        0.0524
     32 H           1.3800    1.5000    0.0000 H       1  UNL1        0.0524
@<TRIPOS>BOND
     1     1     2    1
     2     1    14    1
     3     2     3    1
     4     2     4    1
     5     2    15    1
     6     3     5    1
     7     3    16    1
     8     3    17    1
     9     4     6   ar
    10     4     7   ar
    11     5     8    2
    12     5    18    1
    13     6     9   ar
    14     6    19    1
    15     7    10   ar
    16     7    20    1
    17     8    11    1
    18     8    12    1
    19     9    13   ar
    20     9    21    1
    21    10    13   ar
    22    10    22    1
    23    11    23    1
    24    11    24    1
    25    11    25    1
    26    12    26    1
    27    12    27    1
    28    12    28    1
    29    13    29    1
    30    14    30    1
    31    14    31    1
    32    14    32    1
