@<TRIPOS>MOLECULE
IMPHY002264
 36 37 0 0 0
SMALL
GASTEIGER

@<TRIPOS>ATOM
      1 C           3.2369    0.1699    0.0000 C.3     1  UNL1       -0.0190
      2 C           3.9735   -0.8127    0.0000 C.3     1  UNL1       -0.0311
      3 C           3.7147   -1.7786    0.0000 C.3     1  UNL1       -0.0142
      4 C           2.0000   -1.4310    0.0000 C.3     1  UNL1       -0.0488
      5 C           2.3420   -2.3706    0.0000 C.3     1  UNL1       -0.0457
      6 C           5.3725   -1.3215    0.0000 C.3     1  UNL1       -0.0284
      7 C           5.1137   -2.2875    0.0000 C.2     1  UNL1       -0.0727
      8 C           3.3415    1.1644    0.0000 C.3     1  UNL1       -0.0283
      9 C           2.3234    0.5766    0.0000 C.3     1  UNL1       -0.0585
     10 C           5.6137   -3.1535    0.0000 C.2     1  UNL1       -0.0992
     11 C           4.2550    1.5712    0.0000 C.2     1  UNL1       -0.0847
     12 C           4.3595    2.5657    0.0000 C.2     1  UNL1       -0.0796
     13 C           5.2731    2.9724    0.0000 C.3     1  UNL1       -0.0440
     14 C           3.5505    3.1535    0.0000 C.3     1  UNL1       -0.0440
     15 H           3.9595   -1.4326    0.0000 H       1  UNL1        0.0309
     16 H           3.7328   -2.3984    0.0000 H       1  UNL1        0.0351
     17 H           1.8057   -0.8422    0.0000 H       1  UNL1        0.0268
     18 H           1.4142   -1.6342    0.0000 H       1  UNL1        0.0268
     19 H           1.7636   -2.5940    0.0000 H       1  UNL1        0.0271
     20 H           2.5765   -2.9446    0.0000 H       1  UNL1        0.0271
     21 H           5.9664   -1.4993    0.0000 H       1  UNL1        0.0313
     22 H           5.5674   -0.7330    0.0000 H       1  UNL1        0.0313
     23 H           3.1915    1.7660    0.0000 H       1  UNL1        0.0313
     24 H           2.7230    1.1212    0.0000 H       1  UNL1        0.0313
     25 H           2.5756    1.1430    0.0000 H       1  UNL1        0.0235
     26 H           1.7570    0.8288    0.0000 H       1  UNL1        0.0235
     27 H           2.0712    0.0102    0.0000 H       1  UNL1        0.0235
     28 H           5.3037   -3.6904    0.0000 H       1  UNL1        0.0534
     29 H           6.2337   -3.1535    0.0000 H       1  UNL1        0.0534
     30 H           4.7566    1.2067    0.0000 H       1  UNL1        0.0572
     31 H           5.5252    2.4060    0.0000 H       1  UNL1        0.0274
     32 H           5.8395    3.2246    0.0000 H       1  UNL1        0.0274
     33 H           5.0209    3.5388    0.0000 H       1  UNL1        0.0274
     34 H           3.9149    3.6551    0.0000 H       1  UNL1        0.0274
     35 H           3.0489    3.5179    0.0000 H       1  UNL1        0.0274
     36 H           3.1861    2.6519    0.0000 H       1  UNL1        0.0274
@<TRIPOS>BOND
     1     1     2    1
     2     1     3    1
     3     1     8    1
     4     1     9    1
     5     2     4    1
     6     2     6    1
     7     2    15    1
     8     3     5    1
     9     3     7    1
    10     3    16    1
    11     4     5    1
    12     4    17    1
    13     4    18    1
    14     5    19    1
    15     5    20    1
    16     6     7    1
    17     6    21    1
    18     6    22    1
    19     7    10    2
    20     8    11    1
    21     8    23    1
    22     8    24    1
    23     9    25    1
    24     9    26    1
    25     9    27    1
    26    10    28    1
    27    10    29    1
    28    11    12    2
    29    11    30    1
    30    12    13    1
    31    12    14    1
    32    13    31    1
    33    13    32    1
    34    13    33    1
    35    14    34    1
    36    14    35    1
    37    14    36    1
