@<TRIPOS>MOLECULE
IMPHY010921
 50 53 0 0 0
SMALL
GASTEIGER

@<TRIPOS>ATOM
      1 O           5.5320    0.2350    0.0000 O.3     1  UNL1       -0.3856
      2 O           2.8680   -1.2408    0.0000 O.3     1  UNL1       -0.4951
      3 N           7.9557    1.4507    0.0000 N.3     1  UNL1       -0.2963
      4 N           6.3981   -3.2650    0.0000 N.ar    1  UNL1       -0.2550
      5 C           8.8217    1.9507    0.0000 C.3     1  UNL1       -0.0344
      6 C          10.2110    1.3986    0.0000 C.3     1  UNL1       -0.0256
      7 C           7.2641    0.2350    0.0000 C.3     1  UNL1        0.0408
      8 C           8.2300   -0.0238    0.0000 C.3     1  UNL1       -0.0314
      9 C           9.7884    0.4923    0.0000 C.3     1  UNL1        0.0023
     10 C           8.1923    3.2997    0.0000 C.3     1  UNL1       -0.0370
     11 C           7.3263    2.7997    0.0000 C.3     1  UNL1       -0.0005
     12 C          11.1507    1.7407    0.0000 C.3     1  UNL1       -0.0516
     13 C           6.3981   -0.2650    0.0000 C.3     1  UNL1        0.0963
     14 C           6.3981   -1.2650    0.0000 C.ar    1  UNL1       -0.0070
     15 C          11.9167    1.0979    0.0000 C.3     1  UNL1       -0.0650
     16 C           5.5320   -1.7650    0.0000 C.ar    1  UNL1        0.0095
     17 C           7.2641   -1.7650    0.0000 C.ar    1  UNL1       -0.0373
     18 C           5.5320   -2.7650    0.0000 C.ar    1  UNL1        0.0715
     19 C           4.6381   -1.2303    0.0000 C.ar    1  UNL1       -0.0104
     20 C           7.2641   -2.7650    0.0000 C.ar    1  UNL1        0.0286
     21 C           4.6381   -3.2997    0.0000 C.ar    1  UNL1       -0.0323
     22 C           3.7320   -1.7442    0.0000 C.ar    1  UNL1        0.1208
     23 C           3.7320   -2.7858    0.0000 C.ar    1  UNL1       -0.0179
     24 C           2.0000   -1.7375    0.0000 C.3     1  UNL1        0.0788
     25 H           9.5578    2.3757    0.0000 H       1  UNL1        0.0305
     26 H          10.2200    2.0186    0.0000 H       1  UNL1        0.0316
     27 H           8.0484    0.5628    0.0000 H       1  UNL1        0.0491
     28 H           8.0637   -0.6211    0.0000 H       1  UNL1        0.0284
     29 H           8.8256   -0.1960    0.0000 H       1  UNL1        0.0284
     30 H           9.5094   -0.0614    0.0000 H       1  UNL1        0.0429
     31 H          10.3462    0.2218    0.0000 H       1  UNL1        0.0429
     32 H           8.7463    3.5780    0.0000 H       1  UNL1        0.0280
     33 H           7.8980    3.8454    0.0000 H       1  UNL1        0.0280
     34 H           7.0320    3.3454    0.0000 H       1  UNL1        0.0427
     35 H           6.7723    2.5213    0.0000 H       1  UNL1        0.0427
     36 H          11.6256    2.1392    0.0000 H       1  UNL1        0.0266
     37 H          10.8407    2.2776    0.0000 H       1  UNL1        0.0266
     38 H           6.3981    0.3550    0.0000 H       1  UNL1        0.0659
     39 H          11.5182    0.6229    0.0000 H       1  UNL1        0.0230
     40 H          12.3917    0.6994    0.0000 H       1  UNL1        0.0230
     41 H          12.3152    1.5728    0.0000 H       1  UNL1        0.0230
     42 H           5.5320    0.8550    0.0000 H       1  UNL1        0.2103
     43 H           7.8010   -1.4550    0.0000 H       1  UNL1        0.0636
     44 H           4.6453   -0.6104    0.0000 H       1  UNL1        0.0661
     45 H           7.8010   -3.0750    0.0000 H       1  UNL1        0.0830
     46 H           4.6453   -3.9196    0.0000 H       1  UNL1        0.0640
     47 H           3.1963   -3.0979    0.0000 H       1  UNL1        0.0655
     48 H           1.6921   -1.1994    0.0000 H       1  UNL1        0.0660
     49 H           1.4619   -2.0454    0.0000 H       1  UNL1        0.0660
     50 H           2.3079   -2.2756    0.0000 H       1  UNL1        0.0660
@<TRIPOS>BOND
     1    13     1    1
     2     1    42    1
     3     2    22    1
     4     2    24    1
     5     3     7    1
     6     3     9    1
     7     3    11    1
     8     4    18   ar
     9     4    20   ar
    10     5     6    1
    11     5     8    1
    12     5    10    1
    13     5    25    1
    14     6     9    1
    15     6    12    1
    16     6    26    1
    17     7     8    1
    18     7    13    1
    19     7    27    1
    20     8    28    1
    21     8    29    1
    22     9    30    1
    23     9    31    1
    24    10    11    1
    25    10    32    1
    26    10    33    1
    27    11    34    1
    28    11    35    1
    29    12    15    1
    30    12    36    1
    31    12    37    1
    32    13    14    1
    33    13    38    1
    34    14    16   ar
    35    14    17   ar
    36    15    39    1
    37    15    40    1
    38    15    41    1
    39    16    18   ar
    40    16    19   ar
    41    17    20   ar
    42    17    43    1
    43    18    21   ar
    44    19    22   ar
    45    19    44    1
    46    20    45    1
    47    21    23   ar
    48    21    46    1
    49    22    23   ar
    50    23    47    1
    51    24    48    1
    52    24    49    1
    53    24    50    1
