@<TRIPOS>MOLECULE
IMPHY008795
 54 56 0 0 0
SMALL
GASTEIGER

@<TRIPOS>ATOM
      1 O           5.5413   -0.9952    0.0000 O.3     1  UNL1       -0.4574
      2 O           6.6385    0.4922    0.0000 O.3     1  UNL1       -0.3904
      3 O           6.0055    3.7007    0.0000 O.3     1  UNL1       -0.4574
      4 O           2.3784    0.5280    0.0000 O.3     1  UNL1       -0.3914
      5 O           7.7453    4.0589    0.0000 O.2     1  UNL1       -0.2453
      6 O           4.3422   -2.2450    0.0000 O.2     1  UNL1       -0.2453
      7 C           4.9557    0.6818    0.0000 C.3     1  UNL1        0.0370
      8 C           4.0547    1.1157    0.0000 C.3     1  UNL1       -0.0010
      9 C           4.8197   -0.3029    0.0000 C.3     1  UNL1        0.1138
     10 C           5.8566    1.1157    0.0000 C.3     1  UNL1        0.0747
     11 C           3.8322    2.0907    0.0000 C.3     1  UNL1       -0.0346
     12 C           3.3696    0.3954    0.0000 C.3     1  UNL1        0.0624
     13 C           3.8414   -0.4795    0.0000 C.3     1  UNL1        0.0113
     14 C           6.0792    2.0907    0.0000 C.3     1  UNL1        0.0540
     15 C           4.4557    2.8725    0.0000 C.3     1  UNL1       -0.0121
     16 C           5.4557    2.8725    0.0000 C.3     1  UNL1        0.1130
     17 C           5.8566    0.2480    0.0000 C.3     1  UNL1       -0.0534
     18 C           2.8573    2.3132    0.0000 C.3     1  UNL1       -0.0619
     19 C           7.0089    2.4424    0.0000 C.2     1  UNL1        0.0386
     20 C           6.9635    3.4354    0.0000 C.2     1  UNL1        0.3353
     21 C           7.8445    1.8929    0.0000 C.2     1  UNL1       -0.0882
     22 C           5.3025   -1.9663    0.0000 C.2     1  UNL1        0.3348
     23 C           6.0241   -2.6586    0.0000 C.2     1  UNL1        0.0293
     24 C           6.9845   -2.3798    0.0000 C.3     1  UNL1       -0.0333
     25 C           5.7854   -3.6297    0.0000 C.2     1  UNL1       -0.0774
     26 C           4.8250   -3.9084    0.0000 C.3     1  UNL1       -0.0461
     27 H           3.2350    1.3408    0.0000 H       1  UNL1        0.0336
     28 H           4.6406   -0.8965    0.0000 H       1  UNL1        0.0741
     29 H           6.4418    1.3205    0.0000 H       1  UNL1        0.0607
     30 H           3.6274    2.6759    0.0000 H       1  UNL1        0.0303
     31 H           3.0172   -0.1147    0.0000 H       1  UNL1        0.0597
     32 H           3.2678   -0.7148    0.0000 H       1  UNL1        0.0326
     33 H           4.0151   -1.0747    0.0000 H       1  UNL1        0.0326
     34 H           6.7200    1.5322    0.0000 H       1  UNL1        0.0412
     35 H           4.5936    3.4770    0.0000 H       1  UNL1        0.0304
     36 H           3.8971    3.1415    0.0000 H       1  UNL1        0.0304
     37 H           5.0539    3.6215    0.0000 H       1  UNL1        0.0741
     38 H           5.5876   -0.3106    0.0000 H       1  UNL1        0.0237
     39 H           6.4152   -0.0210    0.0000 H       1  UNL1        0.0237
     40 H           6.1256    0.8066    0.0000 H       1  UNL1        0.0237
     41 H           2.9952    2.9176    0.0000 H       1  UNL1        0.0233
     42 H           2.2528    2.4511    0.0000 H       1  UNL1        0.0233
     43 H           2.7193    1.7087    0.0000 H       1  UNL1        0.0233
     44 H           7.2156    0.7188    0.0000 H       1  UNL1        0.2098
     45 H           2.0000    0.0368    0.0000 H       1  UNL1        0.2098
     46 H           7.8085    1.2740    0.0000 H       1  UNL1        0.0540
     47 H           8.3985    2.1712    0.0000 H       1  UNL1        0.0540
     48 H           7.1573   -2.9752    0.0000 H       1  UNL1        0.0280
     49 H           7.5799   -2.2070    0.0000 H       1  UNL1        0.0280
     50 H           6.8116   -1.7844    0.0000 H       1  UNL1        0.0280
     51 H           6.2327   -4.0589    0.0000 H       1  UNL1        0.0574
     52 H           4.6522   -3.3130    0.0000 H       1  UNL1        0.0272
     53 H           4.2296   -4.0813    0.0000 H       1  UNL1        0.0272
     54 H           4.9978   -4.5038    0.0000 H       1  UNL1        0.0272
@<TRIPOS>BOND
     1     9     1    1
     2     1    22    1
     3    10     2    1
     4     2    44    1
     5     3    16    1
     6     3    20    1
     7    12     4    1
     8     4    45    1
     9     5    20    2
    10     6    22    2
    11     7     8    1
    12     7     9    1
    13     7    10    1
    14     7    17    1
    15     8    11    1
    16     8    12    1
    17     8    27    1
    18     9    13    1
    19     9    28    1
    20    10    14    1
    21    10    29    1
    22    11    15    1
    23    11    18    1
    24    11    30    1
    25    12    13    1
    26    12    31    1
    27    13    32    1
    28    13    33    1
    29    14    16    1
    30    14    19    1
    31    14    34    1
    32    15    16    1
    33    15    35    1
    34    15    36    1
    35    16    37    1
    36    17    38    1
    37    17    39    1
    38    17    40    1
    39    18    41    1
    40    18    42    1
    41    18    43    1
    42    19    20    1
    43    19    21    2
    44    21    46    1
    45    21    47    1
    46    22    23    1
    47    23    24    1
    48    23    25    2
    49    24    48    1
    50    24    49    1
    51    24    50    1
    52    25    26    1
    53    25    51    1
    54    26    52    1
    55    26    53    1
    56    26    54    1
