@<TRIPOS>MOLECULE
IMPHY004412
 40 43 0 0 0
SMALL
GASTEIGER

@<TRIPOS>ATOM
      1 O           4.2864   -2.4065    0.0000 O.3     1  UNL1       -0.4814
      2 O           2.5405    0.7508    0.0000 O.3     1  UNL1       -0.5059
      3 O           3.4446    2.2477    0.0000 O.2     1  UNL1       -0.2864
      4 N           6.0427    0.7477    0.0000 N.ar    1  UNL1       -0.3421
      5 C           5.2260   -2.9490    0.0000 C.3     1  UNL1        0.1235
      6 C           5.1767    0.2477    0.0000 C.ar    1  UNL1        0.0672
      7 C           5.1928   -0.7938    0.0000 C.ar    1  UNL1        0.0409
      8 C           4.3107    0.7477    0.0000 C.ar    1  UNL1        0.0879
      9 C           4.2947   -1.3216    0.0000 C.ar    1  UNL1        0.1343
     10 C           6.1614   -2.3993    0.0000 C.2     1  UNL1       -0.0408
     11 C           6.0427    1.7477    0.0000 C.ar    1  UNL1        0.0529
     12 C           6.1447   -1.3144    0.0000 C.2     1  UNL1       -0.0493
     13 C           5.1767    2.2477    0.0000 C.ar    1  UNL1        0.0459
     14 C           3.4007    0.2409    0.0000 C.ar    1  UNL1        0.1332
     15 C           4.3107    1.7477    0.0000 C.ar    1  UNL1        0.2006
     16 C           3.3926   -0.8007    0.0000 C.ar    1  UNL1        0.0230
     17 C           5.7293   -3.8131    0.0000 C.3     1  UNL1       -0.0215
     18 C           4.7293   -3.8170    0.0000 C.3     1  UNL1       -0.0215
     19 C           6.9088    0.2477    0.0000 C.3     1  UNL1        0.0124
     20 C           6.9527    2.2546    0.0000 C.ar    1  UNL1       -0.0375
     21 C           5.1606    3.2892    0.0000 C.ar    1  UNL1       -0.0489
     22 C           6.9608    3.2962    0.0000 C.ar    1  UNL1       -0.0598
     23 C           6.0587    3.8170    0.0000 C.ar    1  UNL1       -0.0610
     24 H           6.7019   -2.7031    0.0000 H       1  UNL1        0.0611
     25 H           6.6756   -0.9941    0.0000 H       1  UNL1        0.0623
     26 H           2.8545   -1.1087    0.0000 H       1  UNL1        0.0691
     27 H           5.1936   -4.1252    0.0000 H       1  UNL1        0.0271
     28 H           6.0414   -4.3488    0.0000 H       1  UNL1        0.0271
     29 H           4.1912   -3.5090    0.0000 H       1  UNL1        0.0271
     30 H           4.4214   -4.3551    0.0000 H       1  UNL1        0.0271
     31 H           5.2675   -4.1249    0.0000 H       1  UNL1        0.0271
     32 H           6.2651   -3.5010    0.0000 H       1  UNL1        0.0271
     33 H           6.5988   -0.2892    0.0000 H       1  UNL1        0.0456
     34 H           7.4457   -0.0623    0.0000 H       1  UNL1        0.0456
     35 H           7.2188    0.7846    0.0000 H       1  UNL1        0.0456
     36 H           7.4860    1.9384    0.0000 H       1  UNL1        0.0638
     37 H           4.6202    3.5930    0.0000 H       1  UNL1        0.0625
     38 H           7.4989    3.6041    0.0000 H       1  UNL1        0.0618
     39 H           6.0563    4.4370    0.0000 H       1  UNL1        0.0618
     40 H           2.0000    0.4471    0.0000 H       1  UNL1        0.2922
@<TRIPOS>BOND
     1     1     5    1
     2     1     9    1
     3     2    14    1
     4     2    40    1
     5     3    15    2
     6     4     6   ar
     7     4    11   ar
     8     4    19    1
     9     5    10    1
    10     5    17    1
    11     5    18    1
    12     6     7   ar
    13     6     8   ar
    14     7     9   ar
    15     7    12    1
    16     8    14   ar
    17     8    15   ar
    18     9    16   ar
    19    10    12    2
    20    10    24    1
    21    11    13   ar
    22    11    20   ar
    23    12    25    1
    24    13    15   ar
    25    13    21   ar
    26    14    16   ar
    27    16    26    1
    28    17    27    1
    29    17    28    1
    30    17    32    1
    31    18    29    1
    32    18    30    1
    33    18    31    1
    34    19    33    1
    35    19    34    1
    36    19    35    1
    37    20    22   ar
    38    20    36    1
    39    21    23   ar
    40    21    37    1
    41    22    23   ar
    42    22    38    1
    43    23    39    1
