@<TRIPOS>MOLECULE
IMPHY013317
 180 189 0 0 0
SMALL
GASTEIGER

@<TRIPOS>ATOM
      1 O          21.8779    3.1999    0.0000 O.3     1  UNL1       -0.3449
      2 O          12.9292    0.1823    0.0000 O.3     1  UNL1       -0.4318
      3 O          13.7953    1.6823    0.0000 O.2     1  UNL1       -0.2501
      4 O          23.6098    3.1799    0.0000 O.3     1  UNL1       -0.3461
      5 O          21.8547    1.2001    0.0000 O.3     1  UNL1       -0.3378
      6 O          11.1972    0.1823    0.0000 O.3     1  UNL1       -0.3312
      7 O          23.5751    0.1801    0.0000 O.3     1  UNL1       -0.3864
      8 O          25.3186    1.1600    0.0000 O.3     1  UNL1       -0.3869
      9 O          12.9292    2.1823    0.0000 O.3     1  UNL1       -0.3829
     10 O          11.1972    3.1823    0.0000 O.3     1  UNL1       -0.3864
     11 O          22.7034   -0.3098    0.0000 O.3     1  UNL1       -0.3431
     12 O           9.4651    2.1823    0.0000 O.3     1  UNL1       -0.3865
     13 O           9.4651   -0.8177    0.0000 O.3     1  UNL1       -0.3460
     14 O          20.1112    0.2202    0.0000 O.3     1  UNL1       -0.3841
     15 O          20.0881   -1.7797    0.0000 O.3     1  UNL1       -0.3864
     16 O          21.8085   -2.7997    0.0000 O.3     1  UNL1       -0.3866
     17 O           7.7331   -0.8177    0.0000 O.3     1  UNL1       -0.3405
     18 O           9.4651   -2.8177    0.0000 O.3     1  UNL1       -0.3841
     19 O           7.7331   -3.8177    0.0000 O.3     1  UNL1       -0.3864
     20 O           6.0010   -2.8177    0.0000 O.3     1  UNL1       -0.3401
     21 O           6.0010    0.1823    0.0000 O.3     1  UNL1       -0.3924
     22 O           5.1350   -1.3177    0.0000 O.3     1  UNL1       -0.3431
     23 O           4.2690   -3.8177    0.0000 O.3     1  UNL1       -0.3841
     24 O           2.5369   -2.8177    0.0000 O.3     1  UNL1       -0.3864
     25 O           2.5369   -0.8177    0.0000 O.3     1  UNL1       -0.3866
     26 C          17.3390    1.6826    0.0000 C.3     1  UNL1       -0.0194
     27 C          18.2011    1.1759    0.0000 C.3     1  UNL1       -0.0257
     28 C          19.1150    1.6757    0.0000 C.3     1  UNL1       -0.0250
     29 C          16.4691    1.1892    0.0000 C.3     1  UNL1       -0.0051
     30 C          19.1311    2.7172    0.0000 C.3     1  UNL1       -0.0278
     31 C          17.3309    2.7242    0.0000 C.3     1  UNL1       -0.0463
     32 C          20.0707    3.2597    0.0000 C.3     1  UNL1       -0.0052
     33 C          18.2330    3.2450    0.0000 C.3     1  UNL1       -0.0486
     34 C          16.4614    0.1893    0.0000 C.2     1  UNL1       -0.0629
     35 C          15.5634   -0.3385    0.0000 C.3     1  UNL1       -0.0031
     36 C          18.1934    0.1759    0.0000 C.3     1  UNL1       -0.0306
     37 C          20.0375    1.1045    0.0000 C.3     1  UNL1       -0.0447
     38 C          15.5793    1.7308    0.0000 C.3     1  UNL1       -0.0424
     39 C          14.6613    0.1823    0.0000 C.3     1  UNL1        0.0744
     40 C          16.7021    2.4535    0.0000 C.3     1  UNL1       -0.0585
     41 C          21.0061    2.7100    0.0000 C.3     1  UNL1        0.0672
     42 C          14.6693    1.2239    0.0000 C.3     1  UNL1       -0.0359
     43 C          19.0996    0.6758    0.0000 C.3     1  UNL1       -0.0590
     44 C          17.3236   -0.3174    0.0000 C.2     1  UNL1       -0.0836
     45 C          20.9894    1.6251    0.0000 C.3     1  UNL1       -0.0255
     46 C          16.1343    2.1316    0.0000 C.3     1  UNL1       -0.0553
     47 C          15.5801   -1.4233    0.0000 C.3     1  UNL1       -0.0403
     48 C          13.7134   -0.3456    0.0000 C.3     1  UNL1       -0.0362
     49 C          14.6447   -1.9731    0.0000 C.3     1  UNL1       -0.0343
     50 C          20.5740    4.1238    0.0000 C.3     1  UNL1       -0.0572
     51 C          19.5740    4.1277    0.0000 C.3     1  UNL1       -0.0572
     52 C          13.7050   -1.4306    0.0000 C.3     1  UNL1       -0.0468
     53 C          13.7953    0.6823    0.0000 C.2     1  UNL1        0.3161
     54 C          15.1480   -2.8372    0.0000 C.3     1  UNL1       -0.0598
     55 C          14.1480   -2.8410    0.0000 C.3     1  UNL1       -0.0598
     56 C          22.7380    2.6900    0.0000 C.3     1  UNL1        0.1882
     57 C          22.7265    1.6900    0.0000 C.3     1  UNL1        0.1406
     58 C          12.0632    0.6823    0.0000 C.3     1  UNL1        0.2337
     59 C          23.5867    1.1800    0.0000 C.3     1  UNL1        0.1141
     60 C          24.4700    2.6699    0.0000 C.3     1  UNL1        0.0792
     61 C          24.4584    1.6700    0.0000 C.3     1  UNL1        0.1069
     62 C          12.0632    1.6823    0.0000 C.3     1  UNL1        0.1455
     63 C          11.1972    2.1823    0.0000 C.3     1  UNL1        0.1152
     64 C          10.3312    0.6823    0.0000 C.3     1  UNL1        0.1144
     65 C          10.3312    1.6823    0.0000 C.3     1  UNL1        0.1120
     66 C          21.8432    0.2001    0.0000 C.3     1  UNL1        0.1884
     67 C          20.9714   -0.2898    0.0000 C.3     1  UNL1        0.1341
     68 C           9.4651    0.1823    0.0000 C.3     1  UNL1        0.0796
     69 C          20.9599   -1.2897    0.0000 C.3     1  UNL1        0.1140
     70 C          22.6918   -1.3098    0.0000 C.3     1  UNL1        0.0873
     71 C          21.8200   -1.7997    0.0000 C.3     1  UNL1        0.1095
     72 C          23.5520   -1.8198    0.0000 C.3     1  UNL1       -0.0361
     73 C           8.5991   -1.3177    0.0000 C.3     1  UNL1        0.1880
     74 C           8.5991   -2.3177    0.0000 C.3     1  UNL1        0.1341
     75 C           7.7331   -2.8177    0.0000 C.3     1  UNL1        0.1144
     76 C           6.8671   -1.3177    0.0000 C.3     1  UNL1        0.1134
     77 C           6.8671   -2.3177    0.0000 C.3     1  UNL1        0.1184
     78 C           6.0010   -0.8177    0.0000 C.3     1  UNL1        0.0730
     79 C           5.1350   -2.3177    0.0000 C.3     1  UNL1        0.1883
     80 C           4.2690   -2.8177    0.0000 C.3     1  UNL1        0.1341
     81 C           3.4030   -2.3177    0.0000 C.3     1  UNL1        0.1140
     82 C           4.2690   -0.8177    0.0000 C.3     1  UNL1        0.0873
     83 C           3.4030   -1.3177    0.0000 C.3     1  UNL1        0.1095
     84 C           4.2690    0.1823    0.0000 C.3     1  UNL1       -0.0361
     85 H          18.9306    0.7396    0.0000 H       1  UNL1        0.0315
     86 H          19.1343    3.5672    0.0000 H       1  UNL1        0.0312
     87 H          17.1174    3.3062    0.0000 H       1  UNL1        0.0271
     88 H          16.7209    2.6134    0.0000 H       1  UNL1        0.0271
     89 H          18.6340    3.7179    0.0000 H       1  UNL1        0.0268
     90 H          17.8357    3.7209    0.0000 H       1  UNL1        0.0268
     91 H          16.3044   -0.7549    0.0000 H       1  UNL1        0.0357
     92 H          18.4010   -0.4083    0.0000 H       1  UNL1        0.0310
     93 H          18.8048    0.2789    0.0000 H       1  UNL1        0.0310
     94 H          19.6257    0.6410    0.0000 H       1  UNL1        0.0271
     95 H          20.4237    0.6195    0.0000 H       1  UNL1        0.0271
     96 H          15.9875    2.1974    0.0000 H       1  UNL1        0.0274
     97 H          15.1894    2.2128    0.0000 H       1  UNL1        0.0274
     98 H          17.1801    2.8484    0.0000 H       1  UNL1        0.0235
     99 H          16.3073    2.9315    0.0000 H       1  UNL1        0.0235
    100 H          16.2241    2.0587    0.0000 H       1  UNL1        0.0235
    101 H          21.5388    2.3928    0.0000 H       1  UNL1        0.0602
    102 H          14.4648    1.8092    0.0000 H       1  UNL1        0.0276
    103 H          14.0577    1.1226    0.0000 H       1  UNL1        0.0276
    104 H          18.4797    0.6854    0.0000 H       1  UNL1        0.0235
    105 H          19.0900    0.0559    0.0000 H       1  UNL1        0.0235
    106 H          19.7195    0.6663    0.0000 H       1  UNL1        0.0235
    107 H          17.3188   -0.9374    0.0000 H       1  UNL1        0.0572
    108 H          21.1894    1.0383    0.0000 H       1  UNL1        0.0290
    109 H          21.6018    1.7218    0.0000 H       1  UNL1        0.0290
    110 H          16.7186    2.3391    0.0000 H       1  UNL1        0.0238
    111 H          15.9268    2.7158    0.0000 H       1  UNL1        0.0238
    112 H          15.5501    1.9240    0.0000 H       1  UNL1        0.0238
    113 H          15.7981   -2.0037    0.0000 H       1  UNL1        0.0276
    114 H          16.1892   -1.3078    0.0000 H       1  UNL1        0.0276
    115 H          13.5089    0.2397    0.0000 H       1  UNL1        0.0276
    116 H          13.1018   -0.4470    0.0000 H       1  UNL1        0.0276
    117 H          21.1098    3.8117    0.0000 H       1  UNL1        0.0236
    118 H          20.8861    4.6595    0.0000 H       1  UNL1        0.0236
    119 H          20.0383    4.4359    0.0000 H       1  UNL1        0.0236
    120 H          20.1122    4.4356    0.0000 H       1  UNL1        0.0236
    121 H          19.2661    4.6658    0.0000 H       1  UNL1        0.0236
    122 H          19.0359    3.8197    0.0000 H       1  UNL1        0.0236
    123 H          13.0950   -1.3198    0.0000 H       1  UNL1        0.0271
    124 H          13.4915   -2.0126    0.0000 H       1  UNL1        0.0271
    125 H          14.6123   -3.1492    0.0000 H       1  UNL1        0.0235
    126 H          15.4601   -3.3729    0.0000 H       1  UNL1        0.0235
    127 H          15.6837   -2.5251    0.0000 H       1  UNL1        0.0235
    128 H          13.6099   -2.5331    0.0000 H       1  UNL1        0.0235
    129 H          13.8401   -3.3791    0.0000 H       1  UNL1        0.0235
    130 H          14.6861   -3.1489    0.0000 H       1  UNL1        0.0235
    131 H          22.1976    2.3862    0.0000 H       1  UNL1        0.0937
    132 H          22.7193    1.0701    0.0000 H       1  UNL1        0.0675
    133 H          12.6002    0.9923    0.0000 H       1  UNL1        0.1085
    134 H          24.1200    0.8639    0.0000 H       1  UNL1        0.0648
    135 H          25.0793    2.5552    0.0000 H       1  UNL1        0.0587
    136 H          24.6888    3.2500    0.0000 H       1  UNL1        0.0587
    137 H          24.9989    1.9738    0.0000 H       1  UNL1        0.0643
    138 H          12.0632    2.3023    0.0000 H       1  UNL1        0.0683
    139 H          10.6603    2.4923    0.0000 H       1  UNL1        0.0648
    140 H          10.3312    0.0623    0.0000 H       1  UNL1        0.0647
    141 H          10.3312    2.3023    0.0000 H       1  UNL1        0.0647
    142 H          21.3099    0.5163    0.0000 H       1  UNL1        0.0938
    143 H          24.1084   -0.1361    0.0000 H       1  UNL1        0.2100
    144 H          25.8591    1.4638    0.0000 H       1  UNL1        0.2100
    145 H          12.9292    2.8023    0.0000 H       1  UNL1        0.2102
    146 H          20.4309   -0.5936    0.0000 H       1  UNL1        0.0671
    147 H           9.2531    0.7649    0.0000 H       1  UNL1        0.0587
    148 H           8.8546    0.0747    0.0000 H       1  UNL1        0.0587
    149 H          11.7341    3.4923    0.0000 H       1  UNL1        0.2100
    150 H          20.9527   -1.9097    0.0000 H       1  UNL1        0.0648
    151 H           9.4651    2.8023    0.0000 H       1  UNL1        0.2100
    152 H          23.2323   -1.0060    0.0000 H       1  UNL1        0.0621
    153 H          22.3534   -2.1159    0.0000 H       1  UNL1        0.0646
    154 H          19.5708   -0.0836    0.0000 H       1  UNL1        0.2101
    155 H          23.2358   -2.3531    0.0000 H       1  UNL1        0.0255
    156 H          24.0853   -2.1359    0.0000 H       1  UNL1        0.0255
    157 H          23.8682   -1.2864    0.0000 H       1  UNL1        0.0255
    158 H           8.5991   -0.6977    0.0000 H       1  UNL1        0.0937
    159 H          20.0809   -2.3996    0.0000 H       1  UNL1        0.2100
    160 H          22.3418   -3.1158    0.0000 H       1  UNL1        0.2100
    161 H           8.5991   -2.9377    0.0000 H       1  UNL1        0.0671
    162 H           7.1962   -3.1277    0.0000 H       1  UNL1        0.0648
    163 H           6.8671   -0.6977    0.0000 H       1  UNL1        0.0647
    164 H           6.3301   -2.0077    0.0000 H       1  UNL1        0.0651
    165 H          10.0021   -2.5077    0.0000 H       1  UNL1        0.2101
    166 H           5.3905   -0.7100    0.0000 H       1  UNL1        0.0584
    167 H           5.7890   -1.4003    0.0000 H       1  UNL1        0.0584
    168 H           8.2700   -4.1277    0.0000 H       1  UNL1        0.2100
    169 H           5.1350   -2.9377    0.0000 H       1  UNL1        0.0938
    170 H           6.5380    0.4923    0.0000 H       1  UNL1        0.2095
    171 H           3.7320   -3.1277    0.0000 H       1  UNL1        0.0671
    172 H           2.8660   -2.0077    0.0000 H       1  UNL1        0.0648
    173 H           4.8059   -0.5077    0.0000 H       1  UNL1        0.0621
    174 H           3.4030   -0.6977    0.0000 H       1  UNL1        0.0646
    175 H           3.7320   -4.1277    0.0000 H       1  UNL1        0.2101
    176 H           4.8890    0.1823    0.0000 H       1  UNL1        0.0255
    177 H           4.2690    0.8023    0.0000 H       1  UNL1        0.0255
    178 H           3.6490    0.1823    0.0000 H       1  UNL1        0.0255
    179 H           2.0000   -2.5077    0.0000 H       1  UNL1        0.2100
    180 H           2.5369   -0.1977    0.0000 H       1  UNL1        0.2100
@<TRIPOS>BOND
     1    41     1    1
     2    56     1    1
     3     2    53    1
     4    58     2    1
     5     3    53    2
     6     4    56    1
     7     4    60    1
     8    57     5    1
     9    66     5    1
    10     6    58    1
    11     6    64    1
    12    59     7    1
    13     7   143    1
    14    61     8    1
    15     8   144    1
    16    62     9    1
    17     9   145    1
    18    63    10    1
    19    10   149    1
    20    11    66    1
    21    11    70    1
    22    65    12    1
    23    12   151    1
    24    13    68    1
    25    73    13    1
    26    67    14    1
    27    14   154    1
    28    69    15    1
    29    15   159    1
    30    71    16    1
    31    16   160    1
    32    17    73    1
    33    17    76    1
    34    74    18    1
    35    18   165    1
    36    75    19    1
    37    19   168    1
    38    77    20    1
    39    79    20    1
    40    21    78    1
    41    21   170    1
    42    22    79    1
    43    22    82    1
    44    80    23    1
    45    23   175    1
    46    81    24    1
    47    24   179    1
    48    83    25    1
    49    25   180    1
    50    26    27    1
    51    26    29    1
    52    26    31    1
    53    26    40    1
    54    27    28    1
    55    27    36    1
    56    27    85    1
    57    28    30    1
    58    28    37    1
    59    28    43    1
    60    29    34    1
    61    29    38    1
    62    29    46    1
    63    30    32    1
    64    30    33    1
    65    30    86    1
    66    31    33    1
    67    31    87    1
    68    31    88    1
    69    32    41    1
    70    32    50    1
    71    32    51    1
    72    33    89    1
    73    33    90    1
    74    34    35    1
    75    34    44    2
    76    35    39    1
    77    35    47    1
    78    35    91    1
    79    36    44    1
    80    36    92    1
    81    36    93    1
    82    37    45    1
    83    37    94    1
    84    37    95    1
    85    38    42    1
    86    38    96    1
    87    38    97    1
    88    39    42    1
    89    39    48    1
    90    39    53    1
    91    40    98    1
    92    40    99    1
    93    40   100    1
    94    41    45    1
    95    41   101    1
    96    42   102    1
    97    42   103    1
    98    43   104    1
    99    43   105    1
   100    43   106    1
   101    44   107    1
   102    45   108    1
   103    45   109    1
   104    46   110    1
   105    46   111    1
   106    46   112    1
   107    47    49    1
   108    47   113    1
   109    47   114    1
   110    48    52    1
   111    48   115    1
   112    48   116    1
   113    49    52    1
   114    49    54    1
   115    49    55    1
   116    50   117    1
   117    50   118    1
   118    50   119    1
   119    51   120    1
   120    51   121    1
   121    51   122    1
   122    52   123    1
   123    52   124    1
   124    54   125    1
   125    54   126    1
   126    54   127    1
   127    55   128    1
   128    55   129    1
   129    55   130    1
   130    56    57    1
   131    56   131    1
   132    57    59    1
   133    57   132    1
   134    58    62    1
   135    58   133    1
   136    59    61    1
   137    59   134    1
   138    60    61    1
   139    60   135    1
   140    60   136    1
   141    61   137    1
   142    62    63    1
   143    62   138    1
   144    63    65    1
   145    63   139    1
   146    64    65    1
   147    64    68    1
   148    64   140    1
   149    65   141    1
   150    66    67    1
   151    66   142    1
   152    67    69    1
   153    67   146    1
   154    68   147    1
   155    68   148    1
   156    69    71    1
   157    69   150    1
   158    70    71    1
   159    70    72    1
   160    70   152    1
   161    71   153    1
   162    72   155    1
   163    72   156    1
   164    72   157    1
   165    73    74    1
   166    73   158    1
   167    74    75    1
   168    74   161    1
   169    75    77    1
   170    75   162    1
   171    76    77    1
   172    76    78    1
   173    76   163    1
   174    77   164    1
   175    78   166    1
   176    78   167    1
   177    79    80    1
   178    79   169    1
   179    80    81    1
   180    80   171    1
   181    81    83    1
   182    81   172    1
   183    82    83    1
   184    82    84    1
   185    82   173    1
   186    83   174    1
   187    84   176    1
   188    84   177    1
   189    84   178    1
