@<TRIPOS>MOLECULE
IMPHY001416
 65 67 0 0 0
SMALL
GASTEIGER

@<TRIPOS>ATOM
      1 O           8.6270   -0.2847    0.0000 O.3     1  UNL1       -0.4824
      2 O           2.5369   -0.7500    0.0000 O.3     1  UNL1       -0.3891
      3 O           5.1350   -0.2500    0.0000 O.3     1  UNL1       -0.5063
      4 O           6.8671    2.7500    0.0000 O.3     1  UNL1       -0.4942
      5 O           8.6155    2.7846    0.0000 O.2     1  UNL1       -0.2917
      6 O           9.5254   -1.7708    0.0000 O.3     1  UNL1       -0.5063
      7 O          12.9895   -1.7842    0.0000 O.3     1  UNL1       -0.5066
      8 C           6.0010   -1.7500    0.0000 C.3     1  UNL1       -0.0161
      9 C           5.1350   -1.2500    0.0000 C.3     1  UNL1       -0.0436
     10 C           6.8671   -1.2500    0.0000 C.3     1  UNL1       -0.0142
     11 C           4.2690   -1.7500    0.0000 C.3     1  UNL1       -0.0240
     12 C           3.4030   -1.2500    0.0000 C.3     1  UNL1        0.0606
     13 C           6.8671   -0.2500    0.0000 C.ar    1  UNL1        0.0371
     14 C           6.0010   -2.7500    0.0000 C.2     1  UNL1       -0.0763
     15 C           7.7331    0.2500    0.0000 C.ar    1  UNL1        0.1420
     16 C           9.5331    0.2292    0.0000 C.3     1  UNL1        0.1355
     17 C           7.7331    1.2500    0.0000 C.ar    1  UNL1        0.1012
     18 C           9.5331    1.2708    0.0000 C.3     1  UNL1        0.0521
     19 C           2.9030   -2.1160    0.0000 C.3     1  UNL1       -0.0363
     20 C           3.9030   -0.3840    0.0000 C.3     1  UNL1       -0.0363
     21 C           6.0010    0.2500    0.0000 C.ar    1  UNL1        0.1270
     22 C           8.6270    1.7847    0.0000 C.2     1  UNL1        0.1740
     23 C           6.8671    1.7500    0.0000 C.ar    1  UNL1        0.1376
     24 C           5.1350   -3.2500    0.0000 C.3     1  UNL1       -0.0438
     25 C           6.0010    1.2500    0.0000 C.ar    1  UNL1        0.0227
     26 C          10.3972   -0.2742    0.0000 C.ar    1  UNL1        0.0347
     27 C           6.8671   -3.2500    0.0000 C.2     1  UNL1       -0.0994
     28 C          10.3933   -1.2741    0.0000 C.ar    1  UNL1        0.1270
     29 C          11.2651    0.2225    0.0000 C.ar    1  UNL1       -0.0481
     30 C          11.2574   -1.7775    0.0000 C.ar    1  UNL1        0.0217
     31 C          12.1292   -0.2808    0.0000 C.ar    1  UNL1       -0.0196
     32 C          12.1254   -1.2808    0.0000 C.ar    1  UNL1        0.1203
     33 C           6.0010    3.2500    0.0000 C.3     1  UNL1        0.0788
     34 H           5.4641   -2.0600    0.0000 H       1  UNL1        0.0349
     35 H           5.5335   -0.7751    0.0000 H       1  UNL1        0.0272
     36 H           4.7365   -0.7751    0.0000 H       1  UNL1        0.0272
     37 H           7.0791   -1.8326    0.0000 H       1  UNL1        0.0321
     38 H           7.4776   -1.1423    0.0000 H       1  UNL1        0.0321
     39 H           3.8705   -2.2250    0.0000 H       1  UNL1        0.0293
     40 H           4.6675   -2.2250    0.0000 H       1  UNL1        0.0293
     41 H           9.5282   -0.6208    0.0000 H       1  UNL1        0.0790
     42 H          10.1440    1.1647    0.0000 H       1  UNL1        0.0385
     43 H           9.7422    1.8545    0.0000 H       1  UNL1        0.0385
     44 H           4.4399   -0.6940    0.0000 H       1  UNL1        0.0257
     45 H           4.2130    0.1530    0.0000 H       1  UNL1        0.0257
     46 H           3.3660   -0.0740    0.0000 H       1  UNL1        0.0257
     47 H           2.3660   -1.8060    0.0000 H       1  UNL1        0.0257
     48 H           2.5930   -2.6530    0.0000 H       1  UNL1        0.0257
     49 H           3.4399   -2.4260    0.0000 H       1  UNL1        0.0257
     50 H           4.8250   -2.7131    0.0000 H       1  UNL1        0.0274
     51 H           4.5981   -3.5600    0.0000 H       1  UNL1        0.0274
     52 H           5.4450   -3.7869    0.0000 H       1  UNL1        0.0274
     53 H           5.4641    1.5600    0.0000 H       1  UNL1        0.0691
     54 H           2.0000   -1.0600    0.0000 H       1  UNL1        0.2101
     55 H           6.8671   -3.8700    0.0000 H       1  UNL1        0.0534
     56 H           7.4040   -2.9400    0.0000 H       1  UNL1        0.0534
     57 H          11.2675    0.8425    0.0000 H       1  UNL1        0.0624
     58 H           4.5981    0.0600    0.0000 H       1  UNL1        0.2921
     59 H          11.2550   -2.3975    0.0000 H       1  UNL1        0.0691
     60 H          12.6674    0.0271    0.0000 H       1  UNL1        0.0654
     61 H           6.3110    3.7869    0.0000 H       1  UNL1        0.0660
     62 H           5.4641    3.5600    0.0000 H       1  UNL1        0.0660
     63 H           5.6910    2.7131    0.0000 H       1  UNL1        0.0660
     64 H           9.5230   -2.3908    0.0000 H       1  UNL1        0.2921
     65 H          13.5276   -1.4762    0.0000 H       1  UNL1        0.2921
@<TRIPOS>BOND
     1     1    15    1
     2     1    16    1
     3     2    12    1
     4     2    54    1
     5     3    21    1
     6     3    58    1
     7     4    23    1
     8     4    33    1
     9     5    22    2
    10     6    28    1
    11     6    64    1
    12     7    32    1
    13     7    65    1
    14     8     9    1
    15     8    10    1
    16     8    14    1
    17     8    34    1
    18     9    11    1
    19     9    35    1
    20     9    36    1
    21    10    13    1
    22    10    37    1
    23    10    38    1
    24    11    12    1
    25    11    39    1
    26    11    40    1
    27    12    19    1
    28    12    20    1
    29    13    15   ar
    30    13    21   ar
    31    14    24    1
    32    14    27    2
    33    15    17   ar
    34    16    18    1
    35    16    26    1
    36    16    41    1
    37    17    22    1
    38    17    23   ar
    39    18    22    1
    40    18    42    1
    41    18    43    1
    42    19    47    1
    43    19    48    1
    44    19    49    1
    45    20    44    1
    46    20    45    1
    47    20    46    1
    48    21    25   ar
    49    23    25   ar
    50    24    50    1
    51    24    51    1
    52    24    52    1
    53    25    53    1
    54    26    28   ar
    55    26    29   ar
    56    27    55    1
    57    27    56    1
    58    28    30   ar
    59    29    31   ar
    60    29    57    1
    61    30    32   ar
    62    30    59    1
    63    31    32   ar
    64    31    60    1
    65    33    61    1
    66    33    62    1
    67    33    63    1
