@<TRIPOS>MOLECULE
IMPHY016386
 33 32 0 0 0
SMALL
GASTEIGER

@<TRIPOS>ATOM
      1 O           7.1962    0.7500    0.0000 O.3     1  UNL1       -0.4643
      2 O           6.3301   -0.7500    0.0000 O.2     1  UNL1       -0.2509
      3 C           4.5981    0.2500    0.0000 C.3     1  UNL1       -0.0430
      4 C           3.7320    0.7500    0.0000 C.3     1  UNL1       -0.0528
      5 C           5.4641    0.7500    0.0000 C.3     1  UNL1        0.0449
      6 C           2.8660    0.2500    0.0000 C.3     1  UNL1       -0.0559
      7 C           2.0000    0.7500    0.0000 C.3     1  UNL1       -0.0653
      8 C           6.3301    0.2500    0.0000 C.2     1  UNL1        0.3071
      9 C           8.0622    0.2500    0.0000 C.3     1  UNL1        0.0961
     10 C           8.9282    0.7500    0.0000 C.3     1  UNL1        0.0022
     11 C           9.7942    0.2500    0.0000 C.2     1  UNL1       -0.0765
     12 C          10.6603    0.7500    0.0000 C.3     1  UNL1       -0.0439
     13 C           9.7942   -0.7500    0.0000 C.2     1  UNL1       -0.0996
     14 H           4.1996   -0.2249    0.0000 H       1  UNL1        0.0270
     15 H           4.9966   -0.2249    0.0000 H       1  UNL1        0.0270
     16 H           4.1306    1.2250    0.0000 H       1  UNL1        0.0265
     17 H           3.3335    1.2250    0.0000 H       1  UNL1        0.0265
     18 H           5.8626    1.2250    0.0000 H       1  UNL1        0.0377
     19 H           5.0656    1.2250    0.0000 H       1  UNL1        0.0377
     20 H           2.4675   -0.2249    0.0000 H       1  UNL1        0.0263
     21 H           3.2646   -0.2249    0.0000 H       1  UNL1        0.0263
     22 H           2.3100    1.2869    0.0000 H       1  UNL1        0.0230
     23 H           1.4631    1.0600    0.0000 H       1  UNL1        0.0230
     24 H           1.6900    0.2131    0.0000 H       1  UNL1        0.0230
     25 H           7.6636   -0.2249    0.0000 H       1  UNL1        0.0700
     26 H           8.4607   -0.2249    0.0000 H       1  UNL1        0.0700
     27 H           9.3267    1.2250    0.0000 H       1  UNL1        0.0343
     28 H           8.5297    1.2250    0.0000 H       1  UNL1        0.0343
     29 H          10.9703    0.2131    0.0000 H       1  UNL1        0.0274
     30 H          11.1972    1.0600    0.0000 H       1  UNL1        0.0274
     31 H          10.3503    1.2869    0.0000 H       1  UNL1        0.0274
     32 H           9.2573   -1.0600    0.0000 H       1  UNL1        0.0534
     33 H          10.3312   -1.0600    0.0000 H       1  UNL1        0.0534
@<TRIPOS>BOND
     1     1     8    1
     2     1     9    1
     3     2     8    2
     4     3     4    1
     5     3     5    1
     6     3    14    1
     7     3    15    1
     8     4     6    1
     9     4    16    1
    10     4    17    1
    11     5     8    1
    12     5    18    1
    13     5    19    1
    14     6     7    1
    15     6    20    1
    16     6    21    1
    17     7    22    1
    18     7    23    1
    19     7    24    1
    20     9    10    1
    21     9    25    1
    22     9    26    1
    23    10    11    1
    24    10    27    1
    25    10    28    1
    26    11    12    1
    27    11    13    2
    28    12    29    1
    29    12    30    1
    30    12    31    1
    31    13    32    1
    32    13    33    1
