@<TRIPOS>MOLECULE
IMPHY008879
 39 41 0 0 0
SMALL
GASTEIGER

@<TRIPOS>ATOM
      1 C           4.8268   -0.0488    0.0000 C.3     1  UNL1       -0.0165
      2 C           6.0478    0.8168    0.0000 C.3     1  UNL1       -0.0340
      3 C           6.3066    1.7828    0.0000 C.3     1  UNL1       -0.0196
      4 C           5.5700    2.7654    0.0000 C.3     1  UNL1       -0.0431
      5 C           3.9977    0.5104    0.0000 C.2     1  UNL1       -0.0667
      6 C           4.5503   -1.0037    0.0000 C.3     1  UNL1       -0.0429
      7 C           3.5568   -1.0375    0.0000 C.3     1  UNL1       -0.0345
      8 C           7.4467    0.3080    0.0000 C.3     1  UNL1       -0.0491
      9 C           7.7055    1.2739    0.0000 C.3     1  UNL1       -0.0462
     10 C           3.2160   -0.1037    0.0000 C.3     1  UNL1       -0.0281
     11 C           4.2733    1.4716    0.0000 C.2     1  UNL1       -0.0700
     12 C           2.9976   -1.8666    0.0000 C.3     1  UNL1       -0.0436
     13 C           3.6577    2.2596    0.0000 C.3     1  UNL1       -0.0433
     14 C           2.0000   -1.7968    0.0000 C.3     1  UNL1       -0.0624
     15 C           3.4359   -2.7654    0.0000 C.3     1  UNL1       -0.0624
     16 H           5.3321   -0.4081    0.0000 H       1  UNL1        0.0348
     17 H           5.8278   -0.0042    0.0000 H       1  UNL1        0.0307
     18 H           6.5266    2.6038    0.0000 H       1  UNL1        0.0346
     19 H           5.8878    3.2977    0.0000 H       1  UNL1        0.0274
     20 H           4.9568    2.8573    0.0000 H       1  UNL1        0.0274
     21 H           4.5061   -1.6221    0.0000 H       1  UNL1        0.0274
     22 H           5.1606   -1.1126    0.0000 H       1  UNL1        0.0274
     23 H           3.8571   -1.5799    0.0000 H       1  UNL1        0.0306
     24 H           7.2518   -0.2806    0.0000 H       1  UNL1        0.0268
     25 H           8.0407    0.1302    0.0000 H       1  UNL1        0.0268
     26 H           8.2995    1.0962    0.0000 H       1  UNL1        0.0271
     27 H           7.9005    1.8625    0.0000 H       1  UNL1        0.0271
     28 H           2.8863    0.4214    0.0000 H       1  UNL1        0.0313
     29 H           2.6591   -0.3763    0.0000 H       1  UNL1        0.0313
     30 H           2.6509   -2.3806    0.0000 H       1  UNL1        0.0298
     31 H           4.1462    2.6413    0.0000 H       1  UNL1        0.0275
     32 H           3.2760    2.7482    0.0000 H       1  UNL1        0.0275
     33 H           3.1691    1.8779    0.0000 H       1  UNL1        0.0275
     34 H           2.0432   -1.1783    0.0000 H       1  UNL1        0.0232
     35 H           1.3815   -1.7536    0.0000 H       1  UNL1        0.0232
     36 H           1.9568   -2.4153    0.0000 H       1  UNL1        0.0232
     37 H           2.8787   -3.0372    0.0000 H       1  UNL1        0.0232
     38 H           3.7077   -3.3226    0.0000 H       1  UNL1        0.0232
     39 H           3.9932   -2.4936    0.0000 H       1  UNL1        0.0232
@<TRIPOS>BOND
     1     1     2    1
     2     1     5    1
     3     1     6    1
     4     1    16    1
     5     2     4    1
     6     2     8    1
     7     2    17    1
     8     3     4    1
     9     3     9    1
    10     3    11    1
    11     3    18    1
    12     4    19    1
    13     4    20    1
    14     5    10    1
    15     5    11    2
    16     6     7    1
    17     6    21    1
    18     6    22    1
    19     7    10    1
    20     7    12    1
    21     7    23    1
    22     8     9    1
    23     8    24    1
    24     8    25    1
    25     9    26    1
    26     9    27    1
    27    10    28    1
    28    10    29    1
    29    11    13    1
    30    12    14    1
    31    12    15    1
    32    12    30    1
    33    13    31    1
    34    13    32    1
    35    13    33    1
    36    14    34    1
    37    14    35    1
    38    14    36    1
    39    15    37    1
    40    15    38    1
    41    15    39    1
