@<TRIPOS>MOLECULE
IMPHY001229
 52 55 0 0 0
SMALL
GASTEIGER

@<TRIPOS>ATOM
      1 O          11.3520   -1.0347    0.0000 O.3     1  UNL1       -0.4778
      2 O           9.5920    2.0000    0.0000 O.3     1  UNL1       -0.4937
      3 O           9.5920   -2.0000    0.0000 O.3     1  UNL1       -0.4914
      4 O           2.5836    0.8047    0.0000 O.3     1  UNL1       -0.4526
      5 O           2.5836   -0.8047    0.0000 O.3     1  UNL1       -0.4526
      6 O           7.8600    2.0000    0.0000 O.2     1  UNL1       -0.2870
      7 O           6.1279    2.0000    0.0000 O.2     1  UNL1       -0.5061
      8 C          12.2580   -0.5208    0.0000 C.3     1  UNL1        0.1237
      9 C          10.4580    0.5000    0.0000 C.ar    1  UNL1        0.0625
     10 C          10.4580   -0.5000    0.0000 C.ar    1  UNL1        0.1738
     11 C          12.2580    0.5208    0.0000 C.2     1  UNL1       -0.0408
     12 C          13.2580   -0.5247    0.0000 C.3     1  UNL1       -0.0215
     13 C          12.7547   -1.3888    0.0000 C.3     1  UNL1       -0.0215
     14 C          11.3520    1.0347    0.0000 C.2     1  UNL1       -0.0477
     15 C           9.5920    1.0000    0.0000 C.ar    1  UNL1        0.1417
     16 C           9.5920   -1.0000    0.0000 C.ar    1  UNL1        0.1630
     17 C           8.7260    0.5000    0.0000 C.ar    1  UNL1        0.0676
     18 C           8.7260   -0.5000    0.0000 C.ar    1  UNL1       -0.0019
     19 C           7.8600    1.0000    0.0000 C.2     1  UNL1        0.1932
     20 C           6.9939    0.5000    0.0000 C.2     1  UNL1        0.0278
     21 C           5.2619    0.5000    0.0000 C.ar    1  UNL1        0.0202
     22 C           6.1279    1.0000    0.0000 C.2     1  UNL1        0.1277
     23 C           3.5298    0.5000    0.0000 C.ar    1  UNL1        0.1669
     24 C           3.5298   -0.5000    0.0000 C.ar    1  UNL1        0.1663
     25 C           4.3958    1.0000    0.0000 C.ar    1  UNL1       -0.0055
     26 C          10.4580    2.5000    0.0000 C.3     1  UNL1        0.0788
     27 C           5.2619   -0.5000    0.0000 C.ar    1  UNL1       -0.0474
     28 C           8.7260   -2.5000    0.0000 C.3     1  UNL1        0.0790
     29 C           4.3958   -1.0000    0.0000 C.ar    1  UNL1       -0.0155
     30 C           2.0000   -0.0000    0.0000 C.3     1  UNL1        0.2332
     31 H          12.7938    0.8329    0.0000 H       1  UNL1        0.0611
     32 H          13.2556   -1.1447    0.0000 H       1  UNL1        0.0271
     33 H          12.2166   -1.6967    0.0000 H       1  UNL1        0.0271
     34 H          13.0626   -1.9269    0.0000 H       1  UNL1        0.0271
     35 H          13.2928   -1.0808    0.0000 H       1  UNL1        0.0271
     36 H          13.8780   -0.5271    0.0000 H       1  UNL1        0.0271
     37 H          13.2604    0.0953    0.0000 H       1  UNL1        0.0271
     38 H          11.3448    1.6546    0.0000 H       1  UNL1        0.0624
     39 H           8.1890   -0.8100    0.0000 H       1  UNL1        0.0663
     40 H           6.9939   -0.1200    0.0000 H       1  UNL1        0.0693
     41 H           4.3958    1.6200    0.0000 H       1  UNL1        0.0662
     42 H           5.7988   -0.8100    0.0000 H       1  UNL1        0.0626
     43 H          10.7680    1.9631    0.0000 H       1  UNL1        0.0660
     44 H          10.9950    2.8100    0.0000 H       1  UNL1        0.0660
     45 H          10.1480    3.0369    0.0000 H       1  UNL1        0.0660
     46 H           8.4160   -1.9631    0.0000 H       1  UNL1        0.0660
     47 H           8.1890   -2.8100    0.0000 H       1  UNL1        0.0660
     48 H           9.0360   -3.0369    0.0000 H       1  UNL1        0.0660
     49 H           4.3958   -1.6200    0.0000 H       1  UNL1        0.0655
     50 H           1.5391    0.4147    0.0000 H       1  UNL1        0.1166
     51 H           1.5391   -0.4147    0.0000 H       1  UNL1        0.1166
     52 H           5.5910    2.3100    0.0000 H       1  UNL1        0.2922
@<TRIPOS>BOND
     1     1     8    1
     2     1    10    1
     3     2    15    1
     4     2    26    1
     5     3    16    1
     6     3    28    1
     7     4    23    1
     8     4    30    1
     9     5    24    1
    10     5    30    1
    11     6    19    2
    12     7    22    1
    13     7    52    1
    14     8    11    1
    15     8    12    1
    16     8    13    1
    17     9    10   ar
    18     9    14    1
    19     9    15   ar
    20    10    16   ar
    21    11    14    2
    22    11    31    1
    23    12    32    1
    24    12    36    1
    25    12    37    1
    26    13    33    1
    27    13    34    1
    28    13    35    1
    29    14    38    1
    30    15    17   ar
    31    16    18   ar
    32    17    18   ar
    33    17    19    1
    34    18    39    1
    35    19    20    1
    36    20    22    2
    37    20    40    1
    38    21    22    1
    39    21    25   ar
    40    21    27   ar
    41    23    24   ar
    42    23    25   ar
    43    24    29   ar
    44    25    41    1
    45    26    43    1
    46    26    44    1
    47    26    45    1
    48    27    29   ar
    49    27    42    1
    50    28    46    1
    51    28    47    1
    52    28    48    1
    53    29    49    1
    54    30    50    1
    55    30    51    1
