@<TRIPOS>MOLECULE
IMPHY005582
 54 59 0 0 0
SMALL
GASTEIGER

@<TRIPOS>ATOM
      1 O           6.3440    0.2054    0.0000 O.3     1  UNL1       -0.3523
      2 O           8.6617   -2.1436    0.0000 O.3     1  UNL1       -0.4675
      3 O           9.3690   -0.5625    0.0000 O.2     1  UNL1       -0.2501
      4 O          11.4604    1.1166    0.0000 O.3     1  UNL1       -0.5068
      5 N           5.4212   -1.1368    0.0000 N.3     1  UNL1       -0.2911
      6 N           7.4557    1.7429    0.0000 N.pl3   1  UNL1       -0.3030
      7 C           7.9557    0.2041    0.0000 C.3     1  UNL1        0.0644
      8 C           7.1467    0.7918    0.0000 C.3     1  UNL1        0.1625
      9 C           7.6461   -0.7406    0.0000 C.3     1  UNL1        0.1113
     10 C           5.6828    0.3654    0.0000 C.3     1  UNL1        0.0581
     11 C           3.8664    0.4272    0.0000 C.3     1  UNL1        0.0017
     12 C           4.7906    0.8662    0.0000 C.3     1  UNL1       -0.0253
     13 C           8.0025   -1.3200    0.0000 C.3     1  UNL1       -0.0250
     14 C           6.6520   -0.7397    0.0000 C.3     1  UNL1        0.0676
     15 C           8.7648    0.7918    0.0000 C.ar    1  UNL1       -0.0111
     16 C           6.6548   -2.0330    0.0000 C.3     1  UNL1        0.0006
     17 C           3.6908   -0.5808    0.0000 C.2     1  UNL1       -0.0555
     18 C           4.4122   -1.3064    0.0000 C.3     1  UNL1        0.0208
     19 C           8.4557    1.7429    0.0000 C.ar    1  UNL1        0.0357
     20 C           8.5589   -1.1489    0.0000 C.2     1  UNL1        0.3169
     21 C           6.8679    2.5519    0.0000 C.3     1  UNL1        0.0033
     22 C           9.7802    0.5596    0.0000 C.ar    1  UNL1       -0.0145
     23 C           9.1407    2.5276    0.0000 C.ar    1  UNL1       -0.0369
     24 C           2.7370   -0.8811    0.0000 C.2     1  UNL1       -0.0864
     25 C          10.4831    1.3283    0.0000 C.ar    1  UNL1        0.1173
     26 C          10.1612    2.3189    0.0000 C.ar    1  UNL1       -0.0184
     27 C           2.0000   -0.2052    0.0000 C.3     1  UNL1       -0.0465
     28 C           9.5746   -2.5519    0.0000 C.3     1  UNL1        0.0817
     29 H           5.8286    1.2028    0.0000 H       1  UNL1        0.0508
     30 H           3.1897    0.9415    0.0000 H       1  UNL1        0.0358
     31 H           5.1979    1.3336    0.0000 H       1  UNL1        0.0288
     32 H           4.4160    1.3602    0.0000 H       1  UNL1        0.0288
     33 H           8.2061   -1.9056    0.0000 H       1  UNL1        0.0288
     34 H           8.6122   -1.2074    0.0000 H       1  UNL1        0.0288
     35 H           6.0456   -0.8688    0.0000 H       1  UNL1        0.0572
     36 H           6.7166   -1.3563    0.0000 H       1  UNL1        0.0572
     37 H           6.2186   -2.4736    0.0000 H       1  UNL1        0.0427
     38 H           7.0243   -2.5308    0.0000 H       1  UNL1        0.0427
     39 H           3.8926   -1.6447    0.0000 H       1  UNL1        0.0473
     40 H           4.6375   -1.8840    0.0000 H       1  UNL1        0.0473
     41 H           7.3695    2.9163    0.0000 H       1  UNL1        0.0429
     42 H           6.5035    3.0535    0.0000 H       1  UNL1        0.0429
     43 H           6.3664    2.1875    0.0000 H       1  UNL1        0.0429
     44 H           9.9649   -0.0322    0.0000 H       1  UNL1        0.0657
     45 H           8.9423    3.1150    0.0000 H       1  UNL1        0.0637
     46 H           2.6026   -1.4864    0.0000 H       1  UNL1        0.0569
     47 H          10.5743    2.7813    0.0000 H       1  UNL1        0.0655
     48 H           2.4190    0.2517    0.0000 H       1  UNL1        0.0272
     49 H           1.5431    0.2138    0.0000 H       1  UNL1        0.0272
     50 H           1.5810   -0.6622    0.0000 H       1  UNL1        0.0272
     51 H           9.3214   -3.1179    0.0000 H       1  UNL1        0.0661
     52 H          10.1405   -2.8051    0.0000 H       1  UNL1        0.0661
     53 H           9.8277   -1.9860    0.0000 H       1  UNL1        0.0661
     54 H          11.8771    1.5757    0.0000 H       1  UNL1        0.2921
@<TRIPOS>BOND
     1     1     8    1
     2     1    14    1
     3     2    20    1
     4     2    28    1
     5     3    20    2
     6     4    25    1
     7     4    54    1
     8     5    10    1
     9     5    16    1
    10     5    18    1
    11     8     6    1
    12     6    19    1
    13     6    21    1
    14     7     8    1
    15     7     9    1
    16     7    13    1
    17     7    15    1
    18     8    10    1
    19     9    11    1
    20     9    14    1
    21     9    20    1
    22    10    12    1
    23    10    29    1
    24    11    12    1
    25    11    17    1
    26    11    30    1
    27    12    31    1
    28    12    32    1
    29    13    16    1
    30    13    33    1
    31    13    34    1
    32    14    35    1
    33    14    36    1
    34    15    19   ar
    35    15    22   ar
    36    16    37    1
    37    16    38    1
    38    17    18    1
    39    17    24    2
    40    18    39    1
    41    18    40    1
    42    19    23   ar
    43    21    41    1
    44    21    42    1
    45    21    43    1
    46    22    25   ar
    47    22    44    1
    48    23    26   ar
    49    23    45    1
    50    24    27    1
    51    24    46    1
    52    25    26   ar
    53    26    47    1
    54    27    48    1
    55    27    49    1
    56    27    50    1
    57    28    51    1
    58    28    52    1
    59    28    53    1
