@<TRIPOS>MOLECULE
IMPHY017020
 24 23 0 0 0
SMALL
GASTEIGER

@<TRIPOS>ATOM
      1 O           6.3301    0.7500    0.0000 O.3     1  UNL1       -0.4648
      2 O           7.1962   -0.7500    0.0000 O.2     1  UNL1       -0.2512
      3 C           3.7320    0.2500    0.0000 C.3     1  UNL1       -0.0229
      4 C           4.5981    0.7500    0.0000 C.3     1  UNL1       -0.0125
      5 C           5.4641    0.2500    0.0000 C.3     1  UNL1        0.0930
      6 C           3.7320   -0.7500    0.0000 C.3     1  UNL1       -0.0589
      7 C           2.8660    0.7500    0.0000 C.2     1  UNL1       -0.0882
      8 C           2.0000    0.2500    0.0000 C.2     1  UNL1       -0.1024
      9 C           7.1962    0.2500    0.0000 C.2     1  UNL1        0.3039
     10 C           8.0622    0.7500    0.0000 C.3     1  UNL1        0.0332
     11 H           4.4682   -0.1750    0.0000 H       1  UNL1        0.0341
     12 H           4.9966    1.2250    0.0000 H       1  UNL1        0.0303
     13 H           4.1996    1.2250    0.0000 H       1  UNL1        0.0303
     14 H           5.0656   -0.2249    0.0000 H       1  UNL1        0.0697
     15 H           5.8626   -0.2249    0.0000 H       1  UNL1        0.0697
     16 H           3.1120   -0.7500    0.0000 H       1  UNL1        0.0235
     17 H           3.7320   -1.3700    0.0000 H       1  UNL1        0.0235
     18 H           4.3520   -0.7500    0.0000 H       1  UNL1        0.0235
     19 H           2.8660    1.3700    0.0000 H       1  UNL1        0.0569
     20 H           1.4631    0.5600    0.0000 H       1  UNL1        0.0532
     21 H           2.0000   -0.3700    0.0000 H       1  UNL1        0.0532
     22 H           8.3722    0.2131    0.0000 H       1  UNL1        0.0342
     23 H           8.5991    1.0600    0.0000 H       1  UNL1        0.0342
     24 H           7.7522    1.2869    0.0000 H       1  UNL1        0.0342
@<TRIPOS>BOND
     1     1     5    1
     2     1     9    1
     3     2     9    2
     4     3     4    1
     5     3     6    1
     6     3     7    1
     7     3    11    1
     8     4     5    1
     9     4    12    1
    10     4    13    1
    11     5    14    1
    12     5    15    1
    13     6    16    1
    14     6    17    1
    15     6    18    1
    16     7     8    2
    17     7    19    1
    18     8    20    1
    19     8    21    1
    20     9    10    1
    21    10    22    1
    22    10    23    1
    23    10    24    1
