@<TRIPOS>MOLECULE
IMPHY015791
 41 41 0 0 0
SMALL
GASTEIGER

@<TRIPOS>ATOM
      1 O           2.1340    1.8170    0.0000 O.2     1  UNL1       -0.2954
      2 O           5.5981    1.8170    0.0000 O.2     1  UNL1       -0.2952
      3 O           3.8660   -1.1830    0.0000 O.2     1  UNL1       -0.2952
      4 O           6.4641    0.3170    0.0000 O.2     1  UNL1       -0.2962
      5 C           3.8660    1.8170    0.0000 C.3     1  UNL1        0.0834
      6 C           3.0000    0.3170    0.0000 C.3     1  UNL1        0.0834
      7 C           4.7320    0.3170    0.0000 C.3     1  UNL1        0.1354
      8 C           3.0000    1.3170    0.0000 C.2     1  UNL1        0.1587
      9 C           4.7320    1.3170    0.0000 C.2     1  UNL1        0.1634
     10 C           3.8660   -0.1830    0.0000 C.2     1  UNL1        0.1634
     11 C           4.3660    2.6830    0.0000 C.3     1  UNL1       -0.0462
     12 C           3.3660    2.6830    0.0000 C.3     1  UNL1       -0.0462
     13 C           2.5000   -0.5490    0.0000 C.3     1  UNL1       -0.0462
     14 C           2.0000    0.3170    0.0000 C.3     1  UNL1       -0.0462
     15 C           5.5981   -0.1830    0.0000 C.2     1  UNL1        0.1510
     16 C           5.5981   -1.1830    0.0000 C.3     1  UNL1        0.0093
     17 C           6.4641   -1.6830    0.0000 C.3     1  UNL1       -0.0400
     18 C           6.4641   -2.6830    0.0000 C.3     1  UNL1       -0.0623
     19 C           7.3301   -1.1830    0.0000 C.3     1  UNL1       -0.0623
     20 H           4.7320   -0.3030    0.0000 H       1  UNL1        0.0534
     21 H           4.9030    2.3730    0.0000 H       1  UNL1        0.0243
     22 H           4.6760    3.2200    0.0000 H       1  UNL1        0.0243
     23 H           3.8291    2.9930    0.0000 H       1  UNL1        0.0243
     24 H           3.9030    2.9930    0.0000 H       1  UNL1        0.0243
     25 H           3.0560    3.2200    0.0000 H       1  UNL1        0.0243
     26 H           2.8291    2.3730    0.0000 H       1  UNL1        0.0243
     27 H           1.9631   -0.2390    0.0000 H       1  UNL1        0.0243
     28 H           2.1900   -1.0860    0.0000 H       1  UNL1        0.0243
     29 H           3.0369   -0.8590    0.0000 H       1  UNL1        0.0243
     30 H           2.0000    0.9370    0.0000 H       1  UNL1        0.0243
     31 H           1.3800    0.3170    0.0000 H       1  UNL1        0.0243
     32 H           2.0000   -0.3030    0.0000 H       1  UNL1        0.0243
     33 H           4.9875   -1.0754    0.0000 H       1  UNL1        0.0344
     34 H           5.3860   -1.7656    0.0000 H       1  UNL1        0.0344
     35 H           6.4641   -1.0630    0.0000 H       1  UNL1        0.0299
     36 H           5.8441   -2.6830    0.0000 H       1  UNL1        0.0232
     37 H           6.4641   -3.3030    0.0000 H       1  UNL1        0.0232
     38 H           7.0841   -2.6830    0.0000 H       1  UNL1        0.0232
     39 H           7.6401   -1.7200    0.0000 H       1  UNL1        0.0232
     40 H           7.8671   -0.8730    0.0000 H       1  UNL1        0.0232
     41 H           7.0201   -0.6461    0.0000 H       1  UNL1        0.0232
@<TRIPOS>BOND
     1     1     8    2
     2     2     9    2
     3     3    10    2
     4     4    15    2
     5     5     8    1
     6     5     9    1
     7     5    11    1
     8     5    12    1
     9     6     8    1
    10     6    10    1
    11     6    13    1
    12     6    14    1
    13     7     9    1
    14     7    10    1
    15     7    15    1
    16     7    20    1
    17    11    21    1
    18    11    22    1
    19    11    23    1
    20    12    24    1
    21    12    25    1
    22    12    26    1
    23    13    27    1
    24    13    28    1
    25    13    29    1
    26    14    30    1
    27    14    31    1
    28    14    32    1
    29    15    16    1
    30    16    17    1
    31    16    33    1
    32    16    34    1
    33    17    18    1
    34    17    19    1
    35    17    35    1
    36    18    36    1
    37    18    37    1
    38    18    38    1
    39    19    39    1
    40    19    40    1
    41    19    41    1
