@<TRIPOS>MOLECULE
IMPHY013613
 53 56 0 0 0
SMALL
GASTEIGER

@<TRIPOS>ATOM
      1 O           2.8718    0.6073    0.0000 O.2     1  UNL1       -0.4941
      2 O           4.6298   -2.4651    0.0000 O.3     1  UNL1       -0.3840
      3 O           2.8560   -1.4409    0.0000 O.2     1  UNL1       -0.4934
      4 O           7.2564   -0.9304    0.0000 O.3     1  UNL1       -0.5031
      5 O           9.0381    0.0800    0.0000 O.3     1  UNL1       -0.4914
      6 N           4.7348    2.0991    0.0000 N.3     1  UNL1       -0.2924
      7 C           5.5080    0.1042    0.0000 C.3     1  UNL1        0.0290
      8 C           4.6419    0.6042    0.0000 C.3     1  UNL1        0.0928
      9 C           6.7562    0.9321    0.0000 C.3     1  UNL1       -0.0282
     10 C           5.5240   -0.9373    0.0000 C.3     1  UNL1       -0.0077
     11 C           4.6419    1.6042    0.0000 C.3     1  UNL1       -0.0224
     12 C           6.2149    2.3286    0.0000 C.3     1  UNL1        0.0004
     13 C           6.3740    0.6042    0.0000 C.ar    1  UNL1        0.0093
     14 C           3.7319    0.0973    0.0000 C.2     1  UNL1        0.1580
     15 C           5.5080    2.1042    0.0000 C.3     1  UNL1       -0.0252
     16 C           4.6260   -1.4651    0.0000 C.3     1  UNL1        0.1162
     17 C           6.3740    1.6042    0.0000 C.ar    1  UNL1       -0.0398
     18 C           3.7239   -0.9443    0.0000 C.2     1  UNL1        0.1646
     19 C           3.9960    2.7730    0.0000 C.3     1  UNL1       -0.0118
     20 C           7.2679    0.0695    0.0000 C.ar    1  UNL1        0.1626
     21 C           7.2679    2.1388    0.0000 C.ar    1  UNL1       -0.0546
     22 C           8.1740    0.5834    0.0000 C.ar    1  UNL1        0.1616
     23 C           8.1740    1.6250    0.0000 C.ar    1  UNL1       -0.0160
     24 C           2.0000    0.1174    0.0000 C.3     1  UNL1        0.0786
     25 C           2.8521   -2.4409    0.0000 C.3     1  UNL1        0.0786
     26 C           9.9060    0.5767    0.0000 C.3     1  UNL1        0.0790
     27 H           7.0608    0.3921    0.0000 H       1  UNL1        0.0287
     28 H           7.3167    1.1971    0.0000 H       1  UNL1        0.0287
     29 H           5.7420   -1.5177    0.0000 H       1  UNL1        0.0304
     30 H           6.1332   -0.8218    0.0000 H       1  UNL1        0.0304
     31 H           4.4299    2.1868    0.0000 H       1  UNL1        0.0291
     32 H           4.0314    1.4965    0.0000 H       1  UNL1        0.0291
     33 H           6.8076    2.5105    0.0000 H       1  UNL1        0.0427
     34 H           6.0761    2.9329    0.0000 H       1  UNL1        0.0427
     35 H           5.9065    2.5791    0.0000 H       1  UNL1        0.0314
     36 H           5.1094    2.5791    0.0000 H       1  UNL1        0.0314
     37 H           4.0896   -1.7761    0.0000 H       1  UNL1        0.0676
     38 H           4.4138    3.2311    0.0000 H       1  UNL1        0.0391
     39 H           3.5379    3.1908    0.0000 H       1  UNL1        0.0391
     40 H           3.5782    2.3149    0.0000 H       1  UNL1        0.0391
     41 H           7.2608    2.7588    0.0000 H       1  UNL1        0.0622
     42 H           5.1680   -2.7730    0.0000 H       1  UNL1        0.2104
     43 H           8.7097    1.9371    0.0000 H       1  UNL1        0.0655
     44 H           7.7897   -1.2466    0.0000 H       1  UNL1        0.2923
     45 H           1.6962    0.6578    0.0000 H       1  UNL1        0.0660
     46 H           1.4595   -0.1864    0.0000 H       1  UNL1        0.0660
     47 H           2.3038   -0.4231    0.0000 H       1  UNL1        0.0660
     48 H           2.2321   -2.4385    0.0000 H       1  UNL1        0.0660
     49 H           2.8497   -3.0609    0.0000 H       1  UNL1        0.0660
     50 H           3.4721   -2.4433    0.0000 H       1  UNL1        0.0660
     51 H          10.2140    0.0386    0.0000 H       1  UNL1        0.0660
     52 H          10.4442    0.8846    0.0000 H       1  UNL1        0.0660
     53 H           9.5981    1.1148    0.0000 H       1  UNL1        0.0660
@<TRIPOS>BOND
     1     1    14    1
     2     1    24    1
     3     2    16    1
     4     2    42    1
     5     3    18    1
     6     3    25    1
     7     4    20    1
     8     4    44    1
     9     5    22    1
    10     5    26    1
    11     8     6    1
    12     6    12    1
    13     6    19    1
    14     7     8    1
    15     7     9    1
    16     7    10    1
    17     7    13    1
    18     8    11    1
    19     8    14    1
    20     9    12    1
    21     9    27    1
    22     9    28    1
    23    10    16    1
    24    10    29    1
    25    10    30    1
    26    11    15    1
    27    11    31    1
    28    11    32    1
    29    12    33    1
    30    12    34    1
    31    13    17   ar
    32    13    20   ar
    33    14    18    2
    34    15    17    1
    35    15    35    1
    36    15    36    1
    37    16    18    1
    38    16    37    1
    39    17    21   ar
    40    19    38    1
    41    19    39    1
    42    19    40    1
    43    20    22   ar
    44    21    23   ar
    45    21    41    1
    46    22    23   ar
    47    23    43    1
    48    24    45    1
    49    24    46    1
    50    24    47    1
    51    25    48    1
    52    25    49    1
    53    25    50    1
    54    26    51    1
    55    26    52    1
    56    26    53    1
