@<TRIPOS>MOLECULE
IMPHY002325
 16 17 0 0 0
SMALL
GASTEIGER

@<TRIPOS>ATOM
      1 C        2482.7300 2568.3900    0.0000 C.3     1  UNL1        0.0077
      2 C        2482.7300 2528.3900    0.0000 C.3     1  UNL1        0.0555
      3 C        2482.7300 2488.3900    0.0000 C.3     1  UNL1        0.0279
      4 C        2468.8300 2451.4600    0.0000 C.3     1  UNL1        0.0041
      5 C        2464.6700 2411.6600    0.0000 C.3     1  UNL1        0.0003
      6 C        2464.6700 2411.6600    0.0000 C.3     1  UNL1        0.0003
      7 C        2428.6400 2451.4600    0.0000 C.3     1  UNL1        0.0008
      8 C        2413.3500 2488.3900    0.0000 C.3     1  UNL1        0.0078
      9 C        2413.3500 2528.3900    0.0000 C.3     1  UNL1        0.0645
     10 C        2448.0900 2548.3400    0.0000 C.2     1  UNL1        0.1502
     11 O        2448.0900 2588.3400    0.0000 O.2     1  UNL1       -0.2961
     12 C        2517.4700 2468.3400    0.0000 C.2     1  UNL1       -0.0345
     13 C        2552.0100 2488.3900    0.0000 C.2     1  UNL1       -0.0482
     14 C        2552.0100 2528.3900    0.0000 C.3     1  UNL1        0.0221
     15 C        2517.4700 2548.3400    0.0000 C.3     1  UNL1        0.0116
     16 C        2586.6500 2468.3400    0.0000 C.3     1  UNL1        0.0260
@<TRIPOS>BOND
     1     2     1    1
     2     2     3    1
     3     2    10    1
     4     2    15    1
     5     3     4    1
     6     3    12    1
     7     4     5    1
     8     4     6    1
     9     4     7    1
    10     7     8    1
    11     9     8    1
    12    10     9    1
    13    10    11    2
    14    12    13    2
    15    13    16    1
    16    14    13    1
    17    15    14    1
