@<TRIPOS>MOLECULE
IMPHY013838
 31 30 0 0 0
SMALL
GASTEIGER

@<TRIPOS>ATOM
      1 O           2.5369   -0.8660    0.0000 O.3     1  UNL1       -0.3888
      2 C           3.4030   -0.3660    0.0000 C.3     1  UNL1        0.0634
      3 C           4.2690    0.1340    0.0000 C.3     1  UNL1       -0.0208
      4 C           2.9030    0.5000    0.0000 C.3     1  UNL1       -0.0271
      5 C           5.1350   -0.3660    0.0000 C.3     1  UNL1       -0.0319
      6 C           3.9030   -1.2320    0.0000 C.3     1  UNL1       -0.0361
      7 C           3.4030    1.3660    0.0000 C.3     1  UNL1       -0.0627
      8 C           6.0010    0.1340    0.0000 C.2     1  UNL1       -0.0852
      9 C           6.8671   -0.3660    0.0000 C.2     1  UNL1       -0.0796
     10 C           7.7331    0.1340    0.0000 C.3     1  UNL1       -0.0440
     11 C           6.8671   -1.3660    0.0000 C.3     1  UNL1       -0.0440
     12 H           4.6675    0.6089    0.0000 H       1  UNL1        0.0296
     13 H           3.8705    0.6089    0.0000 H       1  UNL1        0.0296
     14 H           2.4280    0.8985    0.0000 H       1  UNL1        0.0290
     15 H           2.4280    0.1015    0.0000 H       1  UNL1        0.0290
     16 H           4.7365   -0.8410    0.0000 H       1  UNL1        0.0308
     17 H           5.5335   -0.8410    0.0000 H       1  UNL1        0.0308
     18 H           3.3660   -1.5420    0.0000 H       1  UNL1        0.0257
     19 H           4.2130   -1.7690    0.0000 H       1  UNL1        0.0257
     20 H           4.4399   -0.9221    0.0000 H       1  UNL1        0.0257
     21 H           3.9399    1.0560    0.0000 H       1  UNL1        0.0231
     22 H           3.7130    1.9030    0.0000 H       1  UNL1        0.0231
     23 H           2.8660    1.6760    0.0000 H       1  UNL1        0.0231
     24 H           2.0000   -0.5560    0.0000 H       1  UNL1        0.2101
     25 H           6.0010    0.7540    0.0000 H       1  UNL1        0.0571
     26 H           8.0431   -0.4030    0.0000 H       1  UNL1        0.0274
     27 H           8.2700    0.4440    0.0000 H       1  UNL1        0.0274
     28 H           7.4231    0.6709    0.0000 H       1  UNL1        0.0274
     29 H           6.2471   -1.3660    0.0000 H       1  UNL1        0.0274
     30 H           6.8671   -1.9860    0.0000 H       1  UNL1        0.0274
     31 H           7.4871   -1.3660    0.0000 H       1  UNL1        0.0274
@<TRIPOS>BOND
     1     1     2    1
     2     1    24    1
     3     2     3    1
     4     2     4    1
     5     2     6    1
     6     3     5    1
     7     3    12    1
     8     3    13    1
     9     4     7    1
    10     4    14    1
    11     4    15    1
    12     5     8    1
    13     5    16    1
    14     5    17    1
    15     6    18    1
    16     6    19    1
    17     6    20    1
    18     7    21    1
    19     7    22    1
    20     7    23    1
    21     8     9    2
    22     8    25    1
    23     9    10    1
    24     9    11    1
    25    10    26    1
    26    10    27    1
    27    10    28    1
    28    11    29    1
    29    11    30    1
    30    11    31    1
