@<TRIPOS>MOLECULE
IMPHY006695
 23 23 0 0 0
SMALL
GASTEIGER

@<TRIPOS>ATOM
      1 O           2.8660   -1.3100    0.0000 O.3     1  UNL1       -0.4914
      2 O           4.5981   -2.3100    0.0000 O.3     1  UNL1       -0.4915
      3 O           5.4641    2.1900    0.0000 O.3     1  UNL1       -0.4771
      4 O           3.7320    2.1900    0.0000 O.2     1  UNL1       -0.2451
      5 C           3.7320   -0.8100    0.0000 C.ar    1  UNL1        0.1623
      6 C           4.5981   -1.3100    0.0000 C.ar    1  UNL1        0.1615
      7 C           4.5981    0.6900    0.0000 C.ar    1  UNL1        0.0625
      8 C           3.7320    0.1900    0.0000 C.ar    1  UNL1       -0.0023
      9 C           5.4641   -0.8100    0.0000 C.ar    1  UNL1       -0.0155
     10 C           5.4641    0.1900    0.0000 C.ar    1  UNL1       -0.0441
     11 C           4.5981    1.6900    0.0000 C.2     1  UNL1        0.3369
     12 C           2.0000   -0.8100    0.0000 C.3     1  UNL1        0.0790
     13 C           5.4641   -2.8100    0.0000 C.3     1  UNL1        0.0790
     14 H           3.1951    0.5000    0.0000 H       1  UNL1        0.0663
     15 H           6.0010   -1.1200    0.0000 H       1  UNL1        0.0655
     16 H           6.0010    0.5000    0.0000 H       1  UNL1        0.0627
     17 H           2.3100   -0.2731    0.0000 H       1  UNL1        0.0660
     18 H           1.4631   -0.5000    0.0000 H       1  UNL1        0.0660
     19 H           1.6900   -1.3469    0.0000 H       1  UNL1        0.0660
     20 H           5.1541   -3.3469    0.0000 H       1  UNL1        0.0660
     21 H           6.0010   -3.1200    0.0000 H       1  UNL1        0.0660
     22 H           5.7741   -2.2731    0.0000 H       1  UNL1        0.0660
     23 H           5.4641    2.8100    0.0000 H       1  UNL1        0.2954
@<TRIPOS>BOND
     1     1     5    1
     2     1    12    1
     3     2     6    1
     4     2    13    1
     5     3    11    1
     6     3    23    1
     7     4    11    2
     8     5     6   ar
     9     5     8   ar
    10     6     9   ar
    11     7     8   ar
    12     7    10   ar
    13     7    11    1
    14     8    14    1
    15     9    10   ar
    16     9    15    1
    17    10    16    1
    18    12    17    1
    19    12    18    1
    20    12    19    1
    21    13    20    1
    22    13    21    1
    23    13    22    1
