@<TRIPOS>MOLECULE
IMPHY005705
 56 55 0 0 0
SMALL
GASTEIGER

@<TRIPOS>ATOM
      1 O          16.7224   -0.2500    0.0000 O.3     1  UNL1       -0.4806
      2 O          15.8564    1.2500    0.0000 O.2     1  UNL1       -0.2510
      3 C           8.0622   -0.2500    0.0000 C.3     1  UNL1       -0.0531
      4 C           7.1962    0.2500    0.0000 C.3     1  UNL1       -0.0531
      5 C           8.9282    0.2500    0.0000 C.3     1  UNL1       -0.0531
      6 C           6.3301   -0.2500    0.0000 C.3     1  UNL1       -0.0531
      7 C           5.4641    0.2500    0.0000 C.3     1  UNL1       -0.0530
      8 C           9.7942   -0.2500    0.0000 C.3     1  UNL1       -0.0531
      9 C           4.5981   -0.2500    0.0000 C.3     1  UNL1       -0.0528
     10 C          10.6603    0.2500    0.0000 C.3     1  UNL1       -0.0531
     11 C           3.7320    0.2500    0.0000 C.3     1  UNL1       -0.0507
     12 C          11.5263   -0.2500    0.0000 C.3     1  UNL1       -0.0531
     13 C           2.8660   -0.2500    0.0000 C.3     1  UNL1       -0.0467
     14 C          12.3923    0.2500    0.0000 C.3     1  UNL1       -0.0530
     15 C          13.2583   -0.2500    0.0000 C.3     1  UNL1       -0.0526
     16 C          14.1244    0.2500    0.0000 C.3     1  UNL1       -0.0430
     17 C           2.0000    0.2500    0.0000 C.3     1  UNL1       -0.0627
     18 C           2.8660   -1.2500    0.0000 C.3     1  UNL1       -0.0627
     19 C          14.9904   -0.2500    0.0000 C.3     1  UNL1        0.0448
     20 C          15.8564    0.2500    0.0000 C.2     1  UNL1        0.3047
     21 H           7.6636   -0.7249    0.0000 H       1  UNL1        0.0265
     22 H           8.4607   -0.7249    0.0000 H       1  UNL1        0.0265
     23 H           7.5947    0.7249    0.0000 H       1  UNL1        0.0265
     24 H           6.7976    0.7249    0.0000 H       1  UNL1        0.0265
     25 H           9.3267    0.7249    0.0000 H       1  UNL1        0.0265
     26 H           8.5297    0.7249    0.0000 H       1  UNL1        0.0265
     27 H           5.9316   -0.7249    0.0000 H       1  UNL1        0.0265
     28 H           6.7287   -0.7249    0.0000 H       1  UNL1        0.0265
     29 H           5.8626    0.7249    0.0000 H       1  UNL1        0.0265
     30 H           5.0656    0.7249    0.0000 H       1  UNL1        0.0265
     31 H           9.3957   -0.7249    0.0000 H       1  UNL1        0.0265
     32 H          10.1928   -0.7249    0.0000 H       1  UNL1        0.0265
     33 H           4.1996   -0.7249    0.0000 H       1  UNL1        0.0265
     34 H           4.9966   -0.7249    0.0000 H       1  UNL1        0.0265
     35 H          11.0588    0.7249    0.0000 H       1  UNL1        0.0265
     36 H          10.2617    0.7249    0.0000 H       1  UNL1        0.0265
     37 H           4.1306    0.7249    0.0000 H       1  UNL1        0.0268
     38 H           3.3335    0.7249    0.0000 H       1  UNL1        0.0268
     39 H          11.1278   -0.7249    0.0000 H       1  UNL1        0.0265
     40 H          11.9248   -0.7249    0.0000 H       1  UNL1        0.0265
     41 H           2.8660    0.3700    0.0000 H       1  UNL1        0.0295
     42 H          12.7908    0.7249    0.0000 H       1  UNL1        0.0265
     43 H          11.9938    0.7249    0.0000 H       1  UNL1        0.0265
     44 H          12.8598   -0.7249    0.0000 H       1  UNL1        0.0265
     45 H          13.6569   -0.7249    0.0000 H       1  UNL1        0.0265
     46 H          14.5229    0.7249    0.0000 H       1  UNL1        0.0270
     47 H          13.7258    0.7249    0.0000 H       1  UNL1        0.0270
     48 H           2.3100    0.7869    0.0000 H       1  UNL1        0.0232
     49 H           1.4631    0.5600    0.0000 H       1  UNL1        0.0232
     50 H           1.6900   -0.2869    0.0000 H       1  UNL1        0.0232
     51 H           2.2460   -1.2500    0.0000 H       1  UNL1        0.0232
     52 H           2.8660   -1.8700    0.0000 H       1  UNL1        0.0232
     53 H           3.4860   -1.2500    0.0000 H       1  UNL1        0.0232
     54 H          14.5919   -0.7249    0.0000 H       1  UNL1        0.0377
     55 H          15.3889   -0.7249    0.0000 H       1  UNL1        0.0377
     56 H          17.2594    0.0600    0.0000 H       1  UNL1        0.2951
@<TRIPOS>BOND
     1     1    20    1
     2     1    56    1
     3     2    20    2
     4     3     4    1
     5     3     5    1
     6     3    21    1
     7     3    22    1
     8     4     6    1
     9     4    23    1
    10     4    24    1
    11     5     8    1
    12     5    25    1
    13     5    26    1
    14     6     7    1
    15     6    27    1
    16     6    28    1
    17     7     9    1
    18     7    29    1
    19     7    30    1
    20     8    10    1
    21     8    31    1
    22     8    32    1
    23     9    11    1
    24     9    33    1
    25     9    34    1
    26    10    12    1
    27    10    35    1
    28    10    36    1
    29    11    13    1
    30    11    37    1
    31    11    38    1
    32    12    14    1
    33    12    39    1
    34    12    40    1
    35    13    17    1
    36    13    18    1
    37    13    41    1
    38    14    15    1
    39    14    42    1
    40    14    43    1
    41    15    16    1
    42    15    44    1
    43    15    45    1
    44    16    19    1
    45    16    46    1
    46    16    47    1
    47    17    48    1
    48    17    49    1
    49    17    50    1
    50    18    51    1
    51    18    52    1
    52    18    53    1
    53    19    20    1
    54    19    54    1
    55    19    55    1
