@<TRIPOS>MOLECULE
IMPHY000538
 28 29 0 0 0
SMALL
GASTEIGER

@<TRIPOS>ATOM
      1 C        2517.4200 2470.0200    0.0000 C.3     1  UNL1        0.1770
      2 O        2552.0600 2489.9800    0.0000 O.3     1  UNL1       -0.3259
      3 C        2586.7000 2470.0200    0.0000 C.3     1  UNL1        0.2695
      4 O        2586.7000 2430.0200    0.0000 O.3     1  UNL1       -0.3256
      5 C        2621.2400 2409.9800    0.0000 C.3     1  UNL1        0.1835
      6 C        2621.2400 2369.9800    0.0000 C.3     1  UNL1        0.2142
      7 O        2655.8800 2350.0200    0.0000 O.3     1  UNL1       -0.2176
      8 C        2655.9800 2430.0200    0.0000 C.3     1  UNL1        0.2144
      9 C        2655.9800 2470.0200    0.0000 C.3     1  UNL1        0.2198
     10 C        2621.2400 2489.9800    0.0000 C.3     1  UNL1        0.2406
     11 O        2621.2400 2529.9800    0.0000 O.3     1  UNL1       -0.2149
     12 O        2690.6200 2489.9800    0.0000 O.3     1  UNL1       -0.2174
     13 O        2690.6200 2409.9800    0.0000 O.3     1  UNL1       -0.2176
     14 C        2482.6800 2489.9800    0.0000 C.3     1  UNL1        0.1802
     15 O        2482.6800 2529.9800    0.0000 O.3     1  UNL1       -0.3257
     16 C        2448.1400 2550.0200    0.0000 C.3     1  UNL1        0.2712
     17 O        2448.1400 2590.0200    0.0000 O.3     1  UNL1       -0.2998
     18 C        2413.5000 2609.9800    0.0000 C.3     1  UNL1        0.3468
     19 N        2378.8600 2590.0200    0.0000 N.2     1  UNL1        0.0186
     20 N        2344.2200 2609.9800    0.0000 N.3     1  UNL1       -0.0610
     21 C        2309.3800 2589.9300    0.0000 C.3     1  UNL1        0.4449
     22 O        2344.2200 2649.9800    0.0000 O.co2   1  UNL1       -0.6002
     23 C        2413.4000 2529.9800    0.0000 C.3     1  UNL1        0.2406
     24 C        2413.4000 2489.9800    0.0000 C.3     1  UNL1        0.2198
     25 C        2448.1400 2470.0200    0.0000 C.3     1  UNL1        0.2143
     26 O        2448.1400 2430.0200    0.0000 O.3     1  UNL1       -0.2176
     27 O        2378.7600 2470.0200    0.0000 O.3     1  UNL1       -0.2174
     28 O        2378.7600 2550.0200    0.0000 O.3     1  UNL1       -0.2149
@<TRIPOS>UNITY_ATOM_ATTR
20 1
charge 1
22 1
charge -1
@<TRIPOS>BOND
     1     1     2    1
     2     1    14    1
     3     2     3    1
     4     3     4    1
     5     3    10    1
     6     4     5    1
     7     5     6    1
     8     5     8    1
     9     6     7    1
    10     8    13    1
    11     9     8    1
    12     9    12    1
    13    10     9    1
    14    10    11    1
    15    14    15    1
    16    14    25    1
    17    15    16    1
    18    16    17    1
    19    16    23    1
    20    17    18    1
    21    18    19    1
    22    19    20    2
    23    20    21    1
    24    20    22    1
    25    23    28    1
    26    24    23    1
    27    24    27    1
    28    25    24    1
    29    25    26    1
