@<TRIPOS>MOLECULE
IMPHY017407
 16 15 0 0 0
SMALL
GASTEIGER

@<TRIPOS>ATOM
      1 C           3.7320   -0.2500    0.0000 C.3     1  UNL1       -0.0168
      2 C           4.5981    0.2500    0.0000 C.2     1  UNL1       -0.0845
      3 C           5.4641   -0.2500    0.0000 C.2     1  UNL1       -0.0907
      4 C           2.8660    0.2500    0.0000 C.2     1  UNL1       -0.0874
      5 C           6.3301    0.2500    0.0000 C.3     1  UNL1       -0.0468
      6 C           2.0000   -0.2500    0.0000 C.2     1  UNL1       -0.1023
      7 H           3.3335   -0.7249    0.0000 H       1  UNL1        0.0350
      8 H           4.1306   -0.7249    0.0000 H       1  UNL1        0.0350
      9 H           4.5981    0.8700    0.0000 H       1  UNL1        0.0572
     10 H           5.4641   -0.8700    0.0000 H       1  UNL1        0.0566
     11 H           2.8660    0.8700    0.0000 H       1  UNL1        0.0569
     12 H           6.6401   -0.2869    0.0000 H       1  UNL1        0.0272
     13 H           6.8671    0.5600    0.0000 H       1  UNL1        0.0272
     14 H           6.0201    0.7869    0.0000 H       1  UNL1        0.0272
     15 H           1.4631    0.0600    0.0000 H       1  UNL1        0.0532
     16 H           2.0000   -0.8700    0.0000 H       1  UNL1        0.0532
@<TRIPOS>BOND
     1     1     2    1
     2     1     4    1
     3     1     7    1
     4     1     8    1
     5     2     3    2
     6     2     9    1
     7     3     5    1
     8     3    10    1
     9     4     6    2
    10     4    11    1
    11     5    12    1
    12     5    13    1
    13     5    14    1
    14     6    15    1
    15     6    16    1
