@<TRIPOS>MOLECULE
IMPHY005814
 27 29 0 0 0
SMALL
GASTEIGER

@<TRIPOS>ATOM
      1 O           4.0899   -1.2379    0.0000 O.3     1  UNL1       -0.3944
      2 C           2.5739    0.4251    0.0000 C.3     1  UNL1       -0.0181
      3 C           2.0000    0.0050    0.0000 C.3     1  UNL1       -0.0312
      4 C           2.3886    1.1982    0.0000 C.3     1  UNL1       -0.0312
      5 C           3.2246    0.2625    0.0000 C.3     1  UNL1       -0.0002
      6 C           4.0843    0.5878    0.0000 C.3     1  UNL1       -0.0325
      7 C           3.3827    1.3315    0.0000 C.3     1  UNL1       -0.0460
      8 C           3.3827   -0.3734    0.0000 C.3     1  UNL1       -0.0460
      9 C           2.8211    1.5482    0.0000 C.3     1  UNL1       -0.0585
     10 C           4.0904   -0.2379    0.0000 C.3     1  UNL1        0.0503
     11 C           3.9331    1.1684    0.0000 C.3     1  UNL1       -0.0567
     12 H           1.4542   -0.2892    0.0000 H       1  UNL1        0.0309
     13 H           1.9917    1.6745    0.0000 H       1  UNL1        0.0309
     14 H           4.7031    0.6267    0.0000 H       1  UNL1        0.0307
     15 H           3.1480   -0.9472    0.0000 H       1  UNL1        0.0271
     16 H           3.9240   -0.6757    0.0000 H       1  UNL1        0.0271
     17 H           3.9117    1.6548    0.0000 H       1  UNL1        0.0271
     18 H           3.1754    1.9158    0.0000 H       1  UNL1        0.0271
     19 H           3.4266    1.4150    0.0000 H       1  UNL1        0.0235
     20 H           2.9543    2.1537    0.0000 H       1  UNL1        0.0235
     21 H           2.2156    1.6814    0.0000 H       1  UNL1        0.0235
     22 H           4.7009   -0.3459    0.0000 H       1  UNL1        0.0563
     23 H           4.3027    0.3446    0.0000 H       1  UNL1        0.0563
     24 H           4.4214    0.7864    0.0000 H       1  UNL1        0.0236
     25 H           4.3150    1.6567    0.0000 H       1  UNL1        0.0236
     26 H           3.4447    1.5503    0.0000 H       1  UNL1        0.0236
     27 H           4.6267   -1.5482    0.0000 H       1  UNL1        0.2094
@<TRIPOS>BOND
     1     1    10    1
     2     1    27    1
     3     2     3    1
     4     2     4    1
     5     2     5    1
     6     2     9    1
     7     3     4    1
     8     3     8    1
     9     3    12    1
    10     4     7    1
    11     4    13    1
    12     5     6    1
    13     5    10    1
    14     5    11    1
    15     6     7    1
    16     6     8    1
    17     6    14    1
    18     7    17    1
    19     7    18    1
    20     8    15    1
    21     8    16    1
    22     9    19    1
    23     9    20    1
    24     9    21    1
    25    10    22    1
    26    10    23    1
    27    11    24    1
    28    11    25    1
    29    11    26    1
