@<TRIPOS>MOLECULE
IMPHY010170
 58 60 0 0 0
SMALL
GASTEIGER

@<TRIPOS>ATOM
      1 O           2.5369    0.2327    0.0000 O.3     1  UNL1       -0.3912
      2 O          10.3312   -0.2673    0.0000 O.3     1  UNL1       -0.4878
      3 O          13.8232   -0.3020    0.0000 O.2     1  UNL1       -0.4220
      4 O          15.5933   -0.2915    0.0000 O.2     1  UNL1       -0.2452
      5 C           4.2690    0.2327    0.0000 C.3     1  UNL1       -0.0024
      6 C           5.1350   -0.2673    0.0000 C.3     1  UNL1       -0.0124
      7 C           3.4030   -0.2673    0.0000 C.3     1  UNL1        0.0612
      8 C           3.4030   -1.2673    0.0000 C.3     1  UNL1       -0.0226
      9 C           5.1350   -1.2673    0.0000 C.2     1  UNL1       -0.0728
     10 C           6.0010    0.2327    0.0000 C.3     1  UNL1       -0.0423
     11 C           4.2690   -1.7673    0.0000 C.3     1  UNL1       -0.0294
     12 C           3.7690    1.0987    0.0000 C.3     1  UNL1       -0.0569
     13 C           4.7690    1.0987    0.0000 C.3     1  UNL1       -0.0569
     14 C           6.8671   -0.2673    0.0000 C.3     1  UNL1       -0.0313
     15 C           6.0010   -1.7673    0.0000 C.2     1  UNL1       -0.0992
     16 C           7.7331    0.2327    0.0000 C.2     1  UNL1       -0.0734
     17 C           7.7331    1.2327    0.0000 C.3     1  UNL1       -0.0437
     18 C           8.5991   -0.2673    0.0000 C.2     1  UNL1       -0.0481
     19 C           9.4651    0.2327    0.0000 C.3     1  UNL1        0.1081
     20 C          11.1972    0.2327    0.0000 C.ar    1  UNL1        0.1245
     21 C          12.0632   -0.2673    0.0000 C.ar    1  UNL1        0.0231
     22 C          11.1972    1.2327    0.0000 C.ar    1  UNL1       -0.0191
     23 C          12.9292    0.2327    0.0000 C.ar    1  UNL1        0.1425
     24 C          12.9292    1.2327    0.0000 C.ar    1  UNL1        0.0178
     25 C          12.0632    1.7327    0.0000 C.ar    1  UNL1       -0.0476
     26 C          13.8232    1.7673    0.0000 C.ar    1  UNL1       -0.0443
     27 C          14.7292    1.2535    0.0000 C.ar    1  UNL1        0.0236
     28 C          14.7292    0.2119    0.0000 C.ar    1  UNL1        0.3372
     29 H           5.1350    0.3527    0.0000 H       1  UNL1        0.0352
     30 H           3.4030    0.3527    0.0000 H       1  UNL1        0.0599
     31 H           2.7924   -1.1597    0.0000 H       1  UNL1        0.0293
     32 H           3.1909   -1.8499    0.0000 H       1  UNL1        0.0293
     33 H           6.3996    0.7076    0.0000 H       1  UNL1        0.0274
     34 H           5.6025    0.7076    0.0000 H       1  UNL1        0.0274
     35 H           3.8705   -2.2423    0.0000 H       1  UNL1        0.0311
     36 H           4.6675   -2.2423    0.0000 H       1  UNL1        0.0311
     37 H           4.3059    1.4087    0.0000 H       1  UNL1        0.0236
     38 H           3.4590    1.6356    0.0000 H       1  UNL1        0.0236
     39 H           3.2320    0.7887    0.0000 H       1  UNL1        0.0236
     40 H           5.3059    0.7887    0.0000 H       1  UNL1        0.0236
     41 H           5.0790    1.6356    0.0000 H       1  UNL1        0.0236
     42 H           4.2320    1.4087    0.0000 H       1  UNL1        0.0236
     43 H           6.4685   -0.7423    0.0000 H       1  UNL1        0.0310
     44 H           7.2656   -0.7423    0.0000 H       1  UNL1        0.0310
     45 H           2.0000   -0.0773    0.0000 H       1  UNL1        0.2098
     46 H           6.0010   -2.3873    0.0000 H       1  UNL1        0.0534
     47 H           6.5380   -1.4573    0.0000 H       1  UNL1        0.0534
     48 H           8.3531    1.2327    0.0000 H       1  UNL1        0.0274
     49 H           7.7331    1.8527    0.0000 H       1  UNL1        0.0274
     50 H           7.1131    1.2327    0.0000 H       1  UNL1        0.0274
     51 H           8.5991   -0.8873    0.0000 H       1  UNL1        0.0605
     52 H           9.8637    0.7076    0.0000 H       1  UNL1        0.0742
     53 H           9.0666    0.7076    0.0000 H       1  UNL1        0.0742
     54 H          12.0632   -0.8873    0.0000 H       1  UNL1        0.0691
     55 H          10.6603    1.5427    0.0000 H       1  UNL1        0.0654
     56 H          12.0632    2.3527    0.0000 H       1  UNL1        0.0626
     57 H          13.8160    2.3873    0.0000 H       1  UNL1        0.0627
     58 H          15.2650    1.5656    0.0000 H       1  UNL1        0.0689
@<TRIPOS>BOND
     1     7     1    1
     2     1    45    1
     3     2    19    1
     4     2    20    1
     5     3    23   ar
     6     3    28   ar
     7     4    28    2
     8     5     6    1
     9     5     7    1
    10     5    12    1
    11     5    13    1
    12     6     9    1
    13     6    10    1
    14     6    29    1
    15     7     8    1
    16     7    30    1
    17     8    11    1
    18     8    31    1
    19     8    32    1
    20     9    11    1
    21     9    15    2
    22    10    14    1
    23    10    33    1
    24    10    34    1
    25    11    35    1
    26    11    36    1
    27    12    37    1
    28    12    38    1
    29    12    39    1
    30    13    40    1
    31    13    41    1
    32    13    42    1
    33    14    16    1
    34    14    43    1
    35    14    44    1
    36    15    46    1
    37    15    47    1
    38    16    17    1
    39    16    18    2
    40    17    48    1
    41    17    49    1
    42    17    50    1
    43    18    19    1
    44    18    51    1
    45    19    52    1
    46    19    53    1
    47    20    21   ar
    48    20    22   ar
    49    21    23   ar
    50    21    54    1
    51    22    25   ar
    52    22    55    1
    53    23    24   ar
    54    24    25   ar
    55    24    26   ar
    56    25    56    1
    57    26    27   ar
    58    26    57    1
    59    27    28   ar
    60    27    58    1
