@<TRIPOS>MOLECULE
IMPHY013201
 53 56 0 0 0
SMALL
GASTEIGER

@<TRIPOS>ATOM
      1 O           4.2690   -1.1624    0.0000 O.3     1  UNL1       -0.3405
      2 O           6.0010   -1.1624    0.0000 O.3     1  UNL1       -0.3410
      3 O           4.2690   -4.1624    0.0000 O.3     1  UNL1       -0.3864
      4 O           2.5369   -3.1624    0.0000 O.3     1  UNL1       -0.3865
      5 O           6.0010   -3.1624    0.0000 O.3     1  UNL1       -0.3841
      6 O           2.5369   -0.1624    0.0000 O.3     1  UNL1       -0.3924
      7 O           6.8711    1.3792    0.0000 O.2     1  UNL1       -0.4532
      8 O           8.8448    4.3655    0.0000 O.2     1  UNL1       -0.4590
      9 O          10.3791    1.3996    0.0000 O.3     1  UNL1       -0.4936
     10 O           6.9073    3.3862    0.0000 O.3     1  UNL1       -0.4884
     11 O           9.5408   -0.1351    0.0000 O.2     1  UNL1       -0.2869
     12 C           4.2690   -3.1624    0.0000 C.3     1  UNL1        0.1141
     13 C           3.4030   -2.6624    0.0000 C.3     1  UNL1        0.1119
     14 C           5.1350   -2.6624    0.0000 C.3     1  UNL1        0.1341
     15 C           3.4030   -1.6624    0.0000 C.3     1  UNL1        0.1130
     16 C           5.1350   -1.6624    0.0000 C.3     1  UNL1        0.1884
     17 C           2.5369   -1.1624    0.0000 C.3     1  UNL1        0.0730
     18 C           6.0010   -0.1624    0.0000 C.3     1  UNL1        0.1086
     19 C           6.8671    0.3376    0.0000 C.ar    1  UNL1        0.1350
     20 C           7.7791    1.8896    0.0000 C.ar    1  UNL1        0.1875
     21 C           8.6471    1.3929    0.0000 C.ar    1  UNL1        0.1099
     22 C           7.7711   -0.1797    0.0000 C.ar    1  UNL1        0.0263
     23 C           9.5112    1.8963    0.0000 C.ar    1  UNL1        0.1454
     24 C           8.6671    0.3515    0.0000 C.ar    1  UNL1        0.1965
     25 C           7.7753    2.8896    0.0000 C.ar    1  UNL1        0.2063
     26 C           9.5073    2.8963    0.0000 C.ar    1  UNL1        0.0663
     27 C           8.6394    3.3929    0.0000 C.ar    1  UNL1        0.1834
     28 C          10.2417    3.5662    0.0000 C.ar    1  UNL1       -0.0125
     29 C           9.8331    4.4724    0.0000 C.ar    1  UNL1        0.0934
     30 C          11.2432    1.9029    0.0000 C.3     1  UNL1        0.0788
     31 C           6.9035    4.3862    0.0000 C.3     1  UNL1        0.0791
     32 H           3.7320   -3.4724    0.0000 H       1  UNL1        0.0648
     33 H           3.4030   -3.2824    0.0000 H       1  UNL1        0.0647
     34 H           5.1350   -3.2824    0.0000 H       1  UNL1        0.0671
     35 H           3.4030   -1.0424    0.0000 H       1  UNL1        0.0647
     36 H           5.1350   -1.0424    0.0000 H       1  UNL1        0.0938
     37 H           1.9264   -1.0547    0.0000 H       1  UNL1        0.0584
     38 H           2.3249   -1.7450    0.0000 H       1  UNL1        0.0584
     39 H           3.7320   -4.4724    0.0000 H       1  UNL1        0.2100
     40 H           2.0000   -2.8524    0.0000 H       1  UNL1        0.2100
     41 H           6.5380   -2.8524    0.0000 H       1  UNL1        0.2101
     42 H           5.7890    0.4202    0.0000 H       1  UNL1        0.0642
     43 H           5.3905   -0.2701    0.0000 H       1  UNL1        0.0642
     44 H           2.0000    0.1476    0.0000 H       1  UNL1        0.2095
     45 H           7.7759   -0.7997    0.0000 H       1  UNL1        0.0690
     46 H          10.8489    3.4407    0.0000 H       1  UNL1        0.0656
     47 H          10.1411    5.0105    0.0000 H       1  UNL1        0.1030
     48 H          11.5553    1.3672    0.0000 H       1  UNL1        0.0660
     49 H          11.7789    2.2150    0.0000 H       1  UNL1        0.0660
     50 H          10.9311    2.4387    0.0000 H       1  UNL1        0.0660
     51 H           7.5235    4.3886    0.0000 H       1  UNL1        0.0660
     52 H           6.9011    5.0062    0.0000 H       1  UNL1        0.0660
     53 H           6.2835    4.3838    0.0000 H       1  UNL1        0.0660
@<TRIPOS>BOND
     1     1    15    1
     2     1    16    1
     3    16     2    1
     4     2    18    1
     5    12     3    1
     6     3    39    1
     7    13     4    1
     8     4    40    1
     9    14     5    1
    10     5    41    1
    11     6    17    1
    12     6    44    1
    13     7    19   ar
    14     7    20   ar
    15     8    27   ar
    16     8    29   ar
    17     9    23    1
    18     9    30    1
    19    10    25    1
    20    10    31    1
    21    11    24    2
    22    12    13    1
    23    12    14    1
    24    12    32    1
    25    13    15    1
    26    13    33    1
    27    14    16    1
    28    14    34    1
    29    15    17    1
    30    15    35    1
    31    16    36    1
    32    17    37    1
    33    17    38    1
    34    18    19    1
    35    18    42    1
    36    18    43    1
    37    19    22   ar
    38    20    21   ar
    39    20    25   ar
    40    21    23   ar
    41    21    24   ar
    42    22    24   ar
    43    22    45    1
    44    23    26   ar
    45    25    27   ar
    46    26    27   ar
    47    26    28   ar
    48    28    29   ar
    49    28    46    1
    50    29    47    1
    51    30    48    1
    52    30    49    1
    53    30    50    1
    54    31    51    1
    55    31    52    1
    56    31    53    1
