@<TRIPOS>MOLECULE
IMPHY007252
 24 23 0 0 0
SMALL
GASTEIGER

@<TRIPOS>ATOM
      1 C           3.7320    0.2500    0.0000 C.3     1  UNL1       -0.0530
      2 C           4.5981   -0.2500    0.0000 C.3     1  UNL1       -0.0496
      3 C           2.8660   -0.2500    0.0000 C.3     1  UNL1       -0.0559
      4 C           5.4641    0.2500    0.0000 C.3     1  UNL1       -0.0348
      5 C           2.0000    0.2500    0.0000 C.3     1  UNL1       -0.0653
      6 C           6.3301   -0.2500    0.0000 C.2     1  UNL1       -0.0882
      7 C           7.1962    0.2500    0.0000 C.2     1  UNL1       -0.0910
      8 C           8.0622   -0.2500    0.0000 C.3     1  UNL1       -0.0468
      9 H           4.1306    0.7249    0.0000 H       1  UNL1        0.0265
     10 H           3.3335    0.7249    0.0000 H       1  UNL1        0.0265
     11 H           4.1996   -0.7249    0.0000 H       1  UNL1        0.0268
     12 H           4.9966   -0.7249    0.0000 H       1  UNL1        0.0268
     13 H           2.4675   -0.7249    0.0000 H       1  UNL1        0.0263
     14 H           3.2646   -0.7249    0.0000 H       1  UNL1        0.0263
     15 H           5.8626    0.7249    0.0000 H       1  UNL1        0.0307
     16 H           5.0656    0.7249    0.0000 H       1  UNL1        0.0307
     17 H           2.3100    0.7869    0.0000 H       1  UNL1        0.0230
     18 H           1.4631    0.5600    0.0000 H       1  UNL1        0.0230
     19 H           1.6900   -0.2869    0.0000 H       1  UNL1        0.0230
     20 H           6.3301   -0.8700    0.0000 H       1  UNL1        0.0569
     21 H           7.1962    0.8700    0.0000 H       1  UNL1        0.0566
     22 H           7.7522   -0.7869    0.0000 H       1  UNL1        0.0272
     23 H           8.5991   -0.5600    0.0000 H       1  UNL1        0.0272
     24 H           8.3722    0.2869    0.0000 H       1  UNL1        0.0272
@<TRIPOS>BOND
     1     1     2    1
     2     1     3    1
     3     1     9    1
     4     1    10    1
     5     2     4    1
     6     2    11    1
     7     2    12    1
     8     3     5    1
     9     3    13    1
    10     3    14    1
    11     4     6    1
    12     4    15    1
    13     4    16    1
    14     5    17    1
    15     5    18    1
    16     5    19    1
    17     6     7    2
    18     6    20    1
    19     7     8    1
    20     7    21    1
    21     8    22    1
    22     8    23    1
    23     8    24    1
