@<TRIPOS>MOLECULE
IMPHY016986
 17 17 0 0 0
SMALL
GASTEIGER

@<TRIPOS>ATOM
      1 N           3.7320   -1.0000    0.0000 N.ar    1  UNL1       -0.2599
      2 C           2.8660    0.5000    0.0000 C.ar    1  UNL1       -0.0294
      3 C           2.8660   -0.5000    0.0000 C.ar    1  UNL1        0.0411
      4 C           3.7320    1.0000    0.0000 C.ar    1  UNL1       -0.0557
      5 C           2.0000    1.0000    0.0000 C.3     1  UNL1       -0.0380
      6 C           2.0000   -1.0000    0.0000 C.3     1  UNL1       -0.0221
      7 C           4.5981    0.5000    0.0000 C.ar    1  UNL1       -0.0433
      8 C           4.5981   -0.5000    0.0000 C.ar    1  UNL1        0.0279
      9 H           3.7320    1.6200    0.0000 H       1  UNL1        0.0621
     10 H           2.3100    1.5369    0.0000 H       1  UNL1        0.0278
     11 H           1.4631    1.3100    0.0000 H       1  UNL1        0.0278
     12 H           1.6900    0.4631    0.0000 H       1  UNL1        0.0278
     13 H           1.6900   -0.4631    0.0000 H       1  UNL1        0.0293
     14 H           1.4631   -1.3100    0.0000 H       1  UNL1        0.0293
     15 H           2.3100   -1.5369    0.0000 H       1  UNL1        0.0293
     16 H           5.1350    0.8100    0.0000 H       1  UNL1        0.0633
     17 H           5.1350   -0.8100    0.0000 H       1  UNL1        0.0829
@<TRIPOS>BOND
     1     1     3   ar
     2     1     8   ar
     3     2     3   ar
     4     2     4   ar
     5     2     5    1
     6     3     6    1
     7     4     7   ar
     8     4     9    1
     9     5    10    1
    10     5    11    1
    11     5    12    1
    12     6    13    1
    13     6    14    1
    14     6    15    1
    15     7     8   ar
    16     7    16    1
    17     8    17    1
