@<TRIPOS>MOLECULE
IMPHY001043
 85 91 0 0 0
SMALL
GASTEIGER

@<TRIPOS>ATOM
      1 O           7.5289   -1.9269    0.0000 O.3     1  UNL1       -0.4483
      2 O           9.5481   -1.5250    0.0000 O.3     1  UNL1       -0.4914
      3 O           5.9765   -0.1615    0.0000 O.3     1  UNL1       -0.4913
      4 O           7.8274   -1.4878    0.0000 O.3     1  UNL1       -0.5009
      5 O           2.7289    1.7048    0.0000 O.3     1  UNL1       -0.4523
      6 O           2.5035    3.7376    0.0000 O.3     1  UNL1       -0.4914
      7 N           4.1925   -4.2099    0.0000 N.3     1  UNL1       -0.2978
      8 N           7.6574    2.7495    0.0000 N.3     1  UNL1       -0.2978
      9 C           4.2005   -3.1683    0.0000 C.3     1  UNL1        0.0398
     10 C           7.2080    1.8038    0.0000 C.3     1  UNL1        0.0397
     11 C           5.1105   -2.6615    0.0000 C.ar    1  UNL1       -0.0196
     12 C           7.7657    0.9674    0.0000 C.ar    1  UNL1       -0.0231
     13 C           5.9765   -3.1615    0.0000 C.ar    1  UNL1        0.0047
     14 C           5.0946   -4.7307    0.0000 C.3     1  UNL1        0.0033
     15 C           5.9926   -4.2030    0.0000 C.3     1  UNL1       -0.0109
     16 C           8.7018    2.8251    0.0000 C.3     1  UNL1        0.0032
     17 C           8.8116    1.0189    0.0000 C.ar    1  UNL1       -0.0378
     18 C           9.2828    1.9540    0.0000 C.3     1  UNL1       -0.0144
     19 C           3.2911   -2.7399    0.0000 C.3     1  UNL1       -0.0079
     20 C           6.4064    2.4103    0.0000 C.3     1  UNL1       -0.0078
     21 C           6.8426   -2.6615    0.0000 C.ar    1  UNL1        0.1770
     22 C           8.0176   -0.0058    0.0000 C.ar    1  UNL1       -0.0107
     23 C           5.1105   -1.6615    0.0000 C.ar    1  UNL1       -0.0111
     24 C           7.9356   -1.0077    0.0000 C.ar    1  UNL1        0.1703
     25 C           3.3246   -4.7066    0.0000 C.3     1  UNL1       -0.0122
     26 C           9.2944    0.1493    0.0000 C.ar    1  UNL1       -0.0128
     27 C           7.0930    3.5750    0.0000 C.3     1  UNL1       -0.0122
     28 C           2.5731   -2.0364    0.0000 C.ar    1  UNL1       -0.0453
     29 C           5.4499    2.7197    0.0000 C.ar    1  UNL1       -0.0419
     30 C           6.8426   -1.6615    0.0000 C.ar    1  UNL1        0.2019
     31 C           8.8998   -0.7636    0.0000 C.ar    1  UNL1        0.1624
     32 C           5.9765   -1.1615    0.0000 C.ar    1  UNL1        0.1653
     33 C           4.4449    2.6975    0.0000 C.ar    1  UNL1       -0.0124
     34 C           2.7612   -1.0534    0.0000 C.ar    1  UNL1       -0.0550
     35 C           2.1262   -1.1360    0.0000 C.ar    1  UNL1       -0.0550
     36 C           5.1565    3.6751    0.0000 C.ar    1  UNL1       -0.0548
     37 C           3.5030    2.3462    0.0000 C.ar    1  UNL1        0.1701
     38 C           2.2087    0.8447    0.0000 C.ar    1  UNL1        0.1286
     39 C           2.6356   -0.0605    0.0000 C.ar    1  UNL1       -0.0191
     40 C           2.0000   -0.1387    0.0000 C.ar    1  UNL1       -0.0191
     41 C           4.2011    3.9684    0.0000 C.ar    1  UNL1       -0.0160
     42 C           3.4220    3.3423    0.0000 C.ar    1  UNL1        0.1621
     43 C          10.5316   -1.3442    0.0000 C.3     1  UNL1        0.0790
     44 C           5.1105    0.3385    0.0000 C.3     1  UNL1        0.0790
     45 C           2.3865    4.7307    0.0000 C.3     1  UNL1        0.0790
     46 H           3.4810   -3.6208    0.0000 H       1  UNL1        0.0515
     47 H           6.5893    1.2209    0.0000 H       1  UNL1        0.0515
     48 H           4.6973   -5.2067    0.0000 H       1  UNL1        0.0430
     49 H           5.4955   -5.2036    0.0000 H       1  UNL1        0.0430
     50 H           6.2106   -4.7834    0.0000 H       1  UNL1        0.0327
     51 H           6.6018   -4.0875    0.0000 H       1  UNL1        0.0327
     52 H           9.2689    3.0758    0.0000 H       1  UNL1        0.0430
     53 H           8.5519    3.4267    0.0000 H       1  UNL1        0.0430
     54 H           9.7805    1.5843    0.0000 H       1  UNL1        0.0326
     55 H           9.7321    2.3812    0.0000 H       1  UNL1        0.0326
     56 H           2.7162   -2.9720    0.0000 H       1  UNL1        0.0332
     57 H           3.6452   -2.2309    0.0000 H       1  UNL1        0.0332
     58 H           6.9471    2.7136    0.0000 H       1  UNL1        0.0332
     59 H           6.1199    1.8604    0.0000 H       1  UNL1        0.0332
     60 H           8.6353    0.0474    0.0000 H       1  UNL1        0.0659
     61 H           4.5736   -1.3515    0.0000 H       1  UNL1        0.0659
     62 H           3.0166   -4.1684    0.0000 H       1  UNL1        0.0391
     63 H           2.7864   -5.0145    0.0000 H       1  UNL1        0.0391
     64 H           3.6325   -5.2447    0.0000 H       1  UNL1        0.0391
     65 H           9.9137    0.1800    0.0000 H       1  UNL1        0.0658
     66 H           7.6048    3.9249    0.0000 H       1  UNL1        0.0391
     67 H           6.7431    4.0868    0.0000 H       1  UNL1        0.0391
     68 H           6.5812    3.2251    0.0000 H       1  UNL1        0.0391
     69 H           4.3281    3.3064    0.0000 H       1  UNL1        0.0658
     70 H           3.3809   -1.0730    0.0000 H       1  UNL1        0.0621
     71 H           1.5326   -1.3152    0.0000 H       1  UNL1        0.0621
     72 H           5.5949    4.1135    0.0000 H       1  UNL1        0.0621
     73 H           3.2309    0.1128    0.0000 H       1  UNL1        0.0654
     74 H           1.3805   -0.1129    0.0000 H       1  UNL1        0.0654
     75 H           4.0843    4.5773    0.0000 H       1  UNL1        0.0655
     76 H           8.2259   -1.9628    0.0000 H       1  UNL1        0.2924
     77 H          10.6437   -1.9540    0.0000 H       1  UNL1        0.0660
     78 H          11.1414   -1.2322    0.0000 H       1  UNL1        0.0660
     79 H          10.4196   -0.7345    0.0000 H       1  UNL1        0.0660
     80 H           5.4205    0.8755    0.0000 H       1  UNL1        0.0660
     81 H           4.5736    0.6485    0.0000 H       1  UNL1        0.0660
     82 H           4.8005   -0.1984    0.0000 H       1  UNL1        0.0660
     83 H           3.0022    4.8032    0.0000 H       1  UNL1        0.0660
     84 H           2.3140    5.3465    0.0000 H       1  UNL1        0.0660
     85 H           1.7708    4.6582    0.0000 H       1  UNL1        0.0660
@<TRIPOS>BOND
     1     1    21    1
     2     1    24    1
     3     2    31    1
     4     2    43    1
     5     3    32    1
     6     3    44    1
     7     4    30    1
     8     4    76    1
     9     5    37    1
    10     5    38    1
    11     6    42    1
    12     6    45    1
    13     7     9    1
    14     7    14    1
    15     7    25    1
    16     8    10    1
    17     8    16    1
    18     8    27    1
    19     9    11    1
    20     9    19    1
    21     9    46    1
    22    10    12    1
    23    10    20    1
    24    10    47    1
    25    11    13   ar
    26    11    23   ar
    27    12    17   ar
    28    12    22   ar
    29    13    15    1
    30    13    21   ar
    31    14    15    1
    32    14    48    1
    33    14    49    1
    34    15    50    1
    35    15    51    1
    36    16    18    1
    37    16    52    1
    38    16    53    1
    39    17    18    1
    40    17    26   ar
    41    18    54    1
    42    18    55    1
    43    19    28    1
    44    19    56    1
    45    19    57    1
    46    20    29    1
    47    20    58    1
    48    20    59    1
    49    21    30   ar
    50    22    24   ar
    51    22    60    1
    52    23    32   ar
    53    23    61    1
    54    24    31   ar
    55    25    62    1
    56    25    63    1
    57    25    64    1
    58    26    31   ar
    59    26    65    1
    60    27    66    1
    61    27    67    1
    62    27    68    1
    63    28    34   ar
    64    28    35   ar
    65    29    33   ar
    66    29    36   ar
    67    30    32   ar
    68    33    37   ar
    69    33    69    1
    70    34    39   ar
    71    34    70    1
    72    35    40   ar
    73    35    71    1
    74    36    41   ar
    75    36    72    1
    76    37    42   ar
    77    38    39   ar
    78    38    40   ar
    79    39    73    1
    80    40    74    1
    81    41    42   ar
    82    41    75    1
    83    43    77    1
    84    43    78    1
    85    43    79    1
    86    44    80    1
    87    44    81    1
    88    44    82    1
    89    45    83    1
    90    45    84    1
    91    45    85    1
