@<TRIPOS>MOLECULE
IMPHY007827
 45 47 0 0 0
SMALL
GASTEIGER

@<TRIPOS>ATOM
      1 O           3.7230   -2.5717    0.0000 O.3     1  UNL1       -0.4567
      2 O           4.5447    0.5936    0.0000 O.3     1  UNL1       -0.4570
      3 O           7.0268   -4.5603    0.0000 O.2     1  UNL1       -0.2924
      4 O           2.0000   -2.1396    0.0000 O.2     1  UNL1       -0.2453
      5 O           6.1053    1.3452    0.0000 O.2     1  UNL1       -0.2452
      6 O           4.8036    4.0481    0.0000 O.3     1  UNL1       -0.3902
      7 C           5.4786   -2.4980    0.0000 C.3     1  UNL1        0.0316
      8 C           4.5777   -2.0641    0.0000 C.3     1  UNL1        0.1211
      9 C           6.3796   -2.0641    0.0000 C.3     1  UNL1       -0.0028
     10 C           4.3551   -1.0892    0.0000 C.3     1  UNL1        0.0653
     11 C           4.9786   -0.3073    0.0000 C.3     1  UNL1        0.1174
     12 C           7.0647   -2.7844    0.0000 C.3     1  UNL1        0.0173
     13 C           6.6021   -1.0892    0.0000 C.2     1  UNL1       -0.0689
     14 C           5.9786   -0.3073    0.0000 C.3     1  UNL1        0.0063
     15 C           5.6146   -3.4827    0.0000 C.2     1  UNL1       -0.0049
     16 C           3.3648   -1.0026    0.0000 C.2     1  UNL1        0.0396
     17 C           6.5929   -3.6594    0.0000 C.2     1  UNL1        0.1597
     18 C           2.9749   -1.9170    0.0000 C.2     1  UNL1        0.3354
     19 C           7.5770   -0.8666    0.0000 C.2     1  UNL1       -0.0990
     20 C           4.8930   -4.1750    0.0000 C.2     1  UNL1       -0.0918
     21 C           2.8504   -0.1451    0.0000 C.2     1  UNL1       -0.0882
     22 C           5.1081    1.4199    0.0000 C.2     1  UNL1        0.3371
     23 C           4.6742    2.3208    0.0000 C.2     1  UNL1        0.0546
     24 C           5.2375    3.1471    0.0000 C.3     1  UNL1        0.0754
     25 C           3.6770    2.3956    0.0000 C.2     1  UNL1       -0.0865
     26 H           4.9775   -2.8630    0.0000 H       1  UNL1        0.0392
     27 H           4.6047   -2.6835    0.0000 H       1  UNL1        0.0747
     28 H           6.9775   -1.8999    0.0000 H       1  UNL1        0.0357
     29 H           4.1107   -0.5194    0.0000 H       1  UNL1        0.0423
     30 H           5.3085    0.2176    0.0000 H       1  UNL1        0.0744
     31 H           7.5765   -3.1344    0.0000 H       1  UNL1        0.0351
     32 H           7.4666   -2.3122    0.0000 H       1  UNL1        0.0351
     33 H           6.5372   -0.0383    0.0000 H       1  UNL1        0.0346
     34 H           5.8407    0.2971    0.0000 H       1  UNL1        0.0346
     35 H           7.9988   -1.3211    0.0000 H       1  UNL1        0.0535
     36 H           7.7598   -0.2742    0.0000 H       1  UNL1        0.0535
     37 H           4.2976   -4.0022    0.0000 H       1  UNL1        0.0539
     38 H           5.0411   -4.7771    0.0000 H       1  UNL1        0.0539
     39 H           3.1514    0.3970    0.0000 H       1  UNL1        0.0540
     40 H           2.2305   -0.1554    0.0000 H       1  UNL1        0.0540
     41 H           5.6813    2.7142    0.0000 H       1  UNL1        0.0609
     42 H           5.7409    3.5090    0.0000 H       1  UNL1        0.0609
     43 H           3.4080    2.9542    0.0000 H       1  UNL1        0.0540
     44 H           3.3277    1.8833    0.0000 H       1  UNL1        0.0540
     45 H           5.1529    4.5603    0.0000 H       1  UNL1        0.2099
@<TRIPOS>BOND
     1     1     8    1
     2     1    18    1
     3     2    11    1
     4     2    22    1
     5     3    17    2
     6     4    18    2
     7     5    22    2
     8     6    24    1
     9     6    45    1
    10     7     8    1
    11     7     9    1
    12     7    15    1
    13     7    26    1
    14     8    10    1
    15     8    27    1
    16     9    12    1
    17     9    13    1
    18     9    28    1
    19    10    11    1
    20    10    16    1
    21    10    29    1
    22    11    14    1
    23    11    30    1
    24    12    17    1
    25    12    31    1
    26    12    32    1
    27    13    14    1
    28    13    19    2
    29    14    33    1
    30    14    34    1
    31    15    17    1
    32    15    20    2
    33    16    18    1
    34    16    21    2
    35    19    35    1
    36    19    36    1
    37    20    37    1
    38    20    38    1
    39    21    39    1
    40    21    40    1
    41    22    23    1
    42    23    24    1
    43    23    25    2
    44    24    41    1
    45    24    42    1
    46    25    43    1
    47    25    44    1
