@<TRIPOS>MOLECULE
IMPHY016105
 42 41 0 0 0
SMALL
GASTEIGER

@<TRIPOS>ATOM
      1 O           8.9282    0.0000    0.0000 O.3     1  UNL1       -0.4643
      2 O           8.0622   -1.5000    0.0000 O.2     1  UNL1       -0.2509
      3 C           4.5981   -0.5000    0.0000 C.3     1  UNL1       -0.0531
      4 C           5.4641    0.0000    0.0000 C.3     1  UNL1       -0.0526
      5 C           3.7320   -0.0000    0.0000 C.3     1  UNL1       -0.0533
      6 C           6.3301   -0.5000    0.0000 C.3     1  UNL1       -0.0430
      7 C           2.8660   -0.5000    0.0000 C.3     1  UNL1       -0.0559
      8 C           7.1962    0.0000    0.0000 C.3     1  UNL1        0.0449
      9 C           2.0000   -0.0000    0.0000 C.3     1  UNL1       -0.0653
     10 C           8.0622   -0.5000    0.0000 C.2     1  UNL1        0.3071
     11 C           9.7942   -0.5000    0.0000 C.3     1  UNL1        0.0959
     12 C          10.6603    0.0000    0.0000 C.3     1  UNL1       -0.0003
     13 C          11.5263   -0.5000    0.0000 C.2     1  UNL1       -0.0847
     14 C          12.3923   -0.0000    0.0000 C.2     1  UNL1       -0.0881
     15 C          12.3923    1.0000    0.0000 C.3     1  UNL1       -0.0376
     16 C          13.2583    1.5000    0.0000 C.3     1  UNL1       -0.0618
     17 H           4.1996   -0.9749    0.0000 H       1  UNL1        0.0265
     18 H           4.9966   -0.9749    0.0000 H       1  UNL1        0.0265
     19 H           5.8626    0.4749    0.0000 H       1  UNL1        0.0265
     20 H           5.0656    0.4749    0.0000 H       1  UNL1        0.0265
     21 H           4.1306    0.4749    0.0000 H       1  UNL1        0.0265
     22 H           3.3335    0.4749    0.0000 H       1  UNL1        0.0265
     23 H           5.9316   -0.9749    0.0000 H       1  UNL1        0.0270
     24 H           6.7287   -0.9749    0.0000 H       1  UNL1        0.0270
     25 H           2.4675   -0.9749    0.0000 H       1  UNL1        0.0263
     26 H           3.2646   -0.9749    0.0000 H       1  UNL1        0.0263
     27 H           7.5947    0.4749    0.0000 H       1  UNL1        0.0377
     28 H           6.7976    0.4749    0.0000 H       1  UNL1        0.0377
     29 H           2.3100    0.5369    0.0000 H       1  UNL1        0.0230
     30 H           1.4631    0.3100    0.0000 H       1  UNL1        0.0230
     31 H           1.6900   -0.5369    0.0000 H       1  UNL1        0.0230
     32 H           9.3957   -0.9749    0.0000 H       1  UNL1        0.0700
     33 H          10.1928   -0.9749    0.0000 H       1  UNL1        0.0700
     34 H          11.0588    0.4749    0.0000 H       1  UNL1        0.0340
     35 H          10.2617    0.4749    0.0000 H       1  UNL1        0.0340
     36 H          11.5263   -1.1200    0.0000 H       1  UNL1        0.0570
     37 H          12.9292   -0.3100    0.0000 H       1  UNL1        0.0569
     38 H          12.1803    1.5826    0.0000 H       1  UNL1        0.0305
     39 H          11.7817    0.8923    0.0000 H       1  UNL1        0.0305
     40 H          13.5683    0.9631    0.0000 H       1  UNL1        0.0233
     41 H          13.7953    1.8100    0.0000 H       1  UNL1        0.0233
     42 H          12.9483    2.0369    0.0000 H       1  UNL1        0.0233
@<TRIPOS>BOND
     1     1    10    1
     2     1    11    1
     3     2    10    2
     4     3     4    1
     5     3     5    1
     6     3    17    1
     7     3    18    1
     8     4     6    1
     9     4    19    1
    10     4    20    1
    11     5     7    1
    12     5    21    1
    13     5    22    1
    14     6     8    1
    15     6    23    1
    16     6    24    1
    17     7     9    1
    18     7    25    1
    19     7    26    1
    20     8    10    1
    21     8    27    1
    22     8    28    1
    23     9    29    1
    24     9    30    1
    25     9    31    1
    26    11    12    1
    27    11    32    1
    28    11    33    1
    29    12    13    1
    30    12    34    1
    31    12    35    1
    32    13    14    2
    33    13    36    1
    34    14    15    1
    35    14    37    1
    36    15    16    1
    37    15    38    1
    38    15    39    1
    39    16    40    1
    40    16    41    1
    41    16    42    1
