@<TRIPOS>MOLECULE
IMPHY010195
 52 54 0 0 0
SMALL
GASTEIGER

@<TRIPOS>ATOM
      1 O           7.2246   -3.5527    0.0000 O.3     1  UNL1       -0.4773
      2 O           5.4926   -3.5327    0.0000 O.2     1  UNL1       -0.2455
      3 O           3.7796    4.1726    0.0000 O.3     1  UNL1       -0.4571
      4 O           2.0000    4.0794    0.0000 O.2     1  UNL1       -0.2456
      5 C           4.6160   -0.0081    0.0000 C.3     1  UNL1       -0.0256
      6 C           5.4820   -0.5081    0.0000 C.3     1  UNL1       -0.0255
      7 C           5.4820   -1.5081    0.0000 C.3     1  UNL1        0.0027
      8 C           3.7500   -0.5081    0.0000 C.3     1  UNL1       -0.0382
      9 C           4.6160   -2.0081    0.0000 C.3     1  UNL1       -0.0429
     10 C           3.7500   -1.5081    0.0000 C.3     1  UNL1       -0.0492
     11 C           6.3759    0.0266    0.0000 C.3     1  UNL1       -0.0454
     12 C           4.1160    0.8579    0.0000 C.3     1  UNL1       -0.0433
     13 C           6.3759   -2.0428    0.0000 C.2     1  UNL1        0.0387
     14 C           5.1160    0.8579    0.0000 C.3     1  UNL1       -0.0590
     15 C           5.4820   -2.5081    0.0000 C.3     1  UNL1       -0.0551
     16 C           7.2820   -0.4873    0.0000 C.3     1  UNL1       -0.0337
     17 C           2.8839   -0.0081    0.0000 C.3     1  UNL1       -0.0619
     18 C           7.2820   -1.5289    0.0000 C.2     1  UNL1       -0.0735
     19 C           4.6160    1.7239    0.0000 C.3     1  UNL1       -0.0275
     20 C           6.3644   -3.0427    0.0000 C.2     1  UNL1        0.3330
     21 C           4.1160    2.5900    0.0000 C.2     1  UNL1       -0.0259
     22 C           4.5227    3.5035    0.0000 C.3     1  UNL1        0.1144
     23 C           3.1215    2.6945    0.0000 C.2     1  UNL1        0.0249
     24 C           2.9136    3.6726    0.0000 C.2     1  UNL1        0.3323
     25 H           5.4755    0.3419    0.0000 H       1  UNL1        0.0315
     26 H           3.7500    0.1119    0.0000 H       1  UNL1        0.0303
     27 H           4.2175   -2.4831    0.0000 H       1  UNL1        0.0274
     28 H           5.0145   -2.4831    0.0000 H       1  UNL1        0.0274
     29 H           3.1394   -1.4004    0.0000 H       1  UNL1        0.0268
     30 H           3.5379   -2.0907    0.0000 H       1  UNL1        0.0268
     31 H           6.7696    0.5056    0.0000 H       1  UNL1        0.0271
     32 H           5.9714    0.4963    0.0000 H       1  UNL1        0.0271
     33 H           3.6410    1.2564    0.0000 H       1  UNL1        0.0274
     34 H           3.6410    0.4594    0.0000 H       1  UNL1        0.0274
     35 H           5.6529    0.5479    0.0000 H       1  UNL1        0.0235
     36 H           5.4260    1.3948    0.0000 H       1  UNL1        0.0235
     37 H           4.5790    1.1679    0.0000 H       1  UNL1        0.0235
     38 H           4.8620   -2.5081    0.0000 H       1  UNL1        0.0238
     39 H           5.4820   -3.1281    0.0000 H       1  UNL1        0.0238
     40 H           6.1020   -2.5081    0.0000 H       1  UNL1        0.0238
     41 H           7.8929   -0.5934    0.0000 H       1  UNL1        0.0308
     42 H           7.4911    0.0964    0.0000 H       1  UNL1        0.0308
     43 H           3.1939    0.5288    0.0000 H       1  UNL1        0.0233
     44 H           2.3470    0.3019    0.0000 H       1  UNL1        0.0233
     45 H           2.5739   -0.5450    0.0000 H       1  UNL1        0.0233
     46 H           7.8178   -1.8410    0.0000 H       1  UNL1        0.0577
     47 H           5.0909    1.3254    0.0000 H       1  UNL1        0.0311
     48 H           5.0909    2.1225    0.0000 H       1  UNL1        0.0311
     49 H           5.0597    3.1935    0.0000 H       1  UNL1        0.0746
     50 H           4.8871    4.0051    0.0000 H       1  UNL1        0.0746
     51 H           2.7066    2.2338    0.0000 H       1  UNL1        0.0689
     52 H           7.2174   -4.1726    0.0000 H       1  UNL1        0.2954
@<TRIPOS>BOND
     1     1    20    1
     2     1    52    1
     3     2    20    2
     4     3    22    1
     5     3    24    1
     6     4    24    2
     7     5     6    1
     8     5     8    1
     9     5    12    1
    10     5    14    1
    11     6     7    1
    12     6    11    1
    13     6    25    1
    14     7     9    1
    15     7    13    1
    16     7    15    1
    17     8    10    1
    18     8    17    1
    19     8    26    1
    20     9    10    1
    21     9    27    1
    22     9    28    1
    23    10    29    1
    24    10    30    1
    25    11    16    1
    26    11    31    1
    27    11    32    1
    28    12    19    1
    29    12    33    1
    30    12    34    1
    31    13    18    2
    32    13    20    1
    33    14    35    1
    34    14    36    1
    35    14    37    1
    36    15    38    1
    37    15    39    1
    38    15    40    1
    39    16    18    1
    40    16    41    1
    41    16    42    1
    42    17    43    1
    43    17    44    1
    44    17    45    1
    45    18    46    1
    46    19    21    1
    47    19    47    1
    48    19    48    1
    49    21    22    1
    50    21    23    2
    51    22    49    1
    52    22    50    1
    53    23    24    1
    54    23    51    1
