@<TRIPOS>MOLECULE
IMPHY017025
 51 50 0 0 0
SMALL
GASTEIGER

@<TRIPOS>ATOM
      1 O           8.9282   -0.2500    0.0000 O.3     1  UNL1       -0.3798
      2 C          12.3923   -0.2500    0.0000 C.3     1  UNL1       -0.0530
      3 C           5.4641   -0.2500    0.0000 C.3     1  UNL1       -0.0530
      4 C          11.5263    0.2500    0.0000 C.3     1  UNL1       -0.0510
      5 C           6.3301    0.2500    0.0000 C.3     1  UNL1       -0.0510
      6 C          13.2583    0.2500    0.0000 C.3     1  UNL1       -0.0531
      7 C           4.5981    0.2500    0.0000 C.3     1  UNL1       -0.0531
      8 C          10.6603   -0.2500    0.0000 C.3     1  UNL1       -0.0295
      9 C           7.1962   -0.2500    0.0000 C.3     1  UNL1       -0.0295
     10 C          14.1244   -0.2500    0.0000 C.3     1  UNL1       -0.0533
     11 C           3.7320   -0.2500    0.0000 C.3     1  UNL1       -0.0533
     12 C           9.7942    0.2500    0.0000 C.3     1  UNL1        0.0477
     13 C           8.0622    0.2500    0.0000 C.3     1  UNL1        0.0477
     14 C          14.9904    0.2500    0.0000 C.3     1  UNL1       -0.0559
     15 C           2.8660    0.2500    0.0000 C.3     1  UNL1       -0.0559
     16 C          15.8564   -0.2500    0.0000 C.3     1  UNL1       -0.0653
     17 C           2.0000   -0.2500    0.0000 C.3     1  UNL1       -0.0653
     18 H          11.9938   -0.7249    0.0000 H       1  UNL1        0.0265
     19 H          12.7908   -0.7249    0.0000 H       1  UNL1        0.0265
     20 H           5.0656   -0.7249    0.0000 H       1  UNL1        0.0265
     21 H           5.8626   -0.7249    0.0000 H       1  UNL1        0.0265
     22 H          11.9248    0.7249    0.0000 H       1  UNL1        0.0266
     23 H          11.1278    0.7249    0.0000 H       1  UNL1        0.0266
     24 H           6.7287    0.7249    0.0000 H       1  UNL1        0.0266
     25 H           5.9316    0.7249    0.0000 H       1  UNL1        0.0266
     26 H          13.6569    0.7249    0.0000 H       1  UNL1        0.0265
     27 H          12.8598    0.7249    0.0000 H       1  UNL1        0.0265
     28 H           4.9966    0.7249    0.0000 H       1  UNL1        0.0265
     29 H           4.1996    0.7249    0.0000 H       1  UNL1        0.0265
     30 H          10.2617   -0.7249    0.0000 H       1  UNL1        0.0287
     31 H          11.0588   -0.7249    0.0000 H       1  UNL1        0.0287
     32 H           6.7976   -0.7249    0.0000 H       1  UNL1        0.0287
     33 H           7.5947   -0.7249    0.0000 H       1  UNL1        0.0287
     34 H          13.7258   -0.7249    0.0000 H       1  UNL1        0.0265
     35 H          14.5229   -0.7249    0.0000 H       1  UNL1        0.0265
     36 H           3.3335   -0.7249    0.0000 H       1  UNL1        0.0265
     37 H           4.1306   -0.7249    0.0000 H       1  UNL1        0.0265
     38 H          10.1928    0.7249    0.0000 H       1  UNL1        0.0560
     39 H           9.3957    0.7249    0.0000 H       1  UNL1        0.0560
     40 H           8.4607    0.7249    0.0000 H       1  UNL1        0.0560
     41 H           7.6636    0.7249    0.0000 H       1  UNL1        0.0560
     42 H          15.3889    0.7249    0.0000 H       1  UNL1        0.0263
     43 H          14.5919    0.7249    0.0000 H       1  UNL1        0.0263
     44 H           3.2646    0.7249    0.0000 H       1  UNL1        0.0263
     45 H           2.4675    0.7249    0.0000 H       1  UNL1        0.0263
     46 H          15.5464   -0.7869    0.0000 H       1  UNL1        0.0230
     47 H          16.3933   -0.5600    0.0000 H       1  UNL1        0.0230
     48 H          16.1664    0.2869    0.0000 H       1  UNL1        0.0230
     49 H           1.6900    0.2869    0.0000 H       1  UNL1        0.0230
     50 H           1.4631   -0.5600    0.0000 H       1  UNL1        0.0230
     51 H           2.3100   -0.7869    0.0000 H       1  UNL1        0.0230
@<TRIPOS>BOND
     1     1    12    1
     2     1    13    1
     3     2     4    1
     4     2     6    1
     5     2    18    1
     6     2    19    1
     7     3     5    1
     8     3     7    1
     9     3    20    1
    10     3    21    1
    11     4     8    1
    12     4    22    1
    13     4    23    1
    14     5     9    1
    15     5    24    1
    16     5    25    1
    17     6    10    1
    18     6    26    1
    19     6    27    1
    20     7    11    1
    21     7    28    1
    22     7    29    1
    23     8    12    1
    24     8    30    1
    25     8    31    1
    26     9    13    1
    27     9    32    1
    28     9    33    1
    29    10    14    1
    30    10    34    1
    31    10    35    1
    32    11    15    1
    33    11    36    1
    34    11    37    1
    35    12    38    1
    36    12    39    1
    37    13    40    1
    38    13    41    1
    39    14    16    1
    40    14    42    1
    41    14    43    1
    42    15    17    1
    43    15    44    1
    44    15    45    1
    45    16    46    1
    46    16    47    1
    47    16    48    1
    48    17    49    1
    49    17    50    1
    50    17    51    1
