@<TRIPOS>MOLECULE
IMPHY000440
 43 44 0 0 0
SMALL
GASTEIGER

@<TRIPOS>ATOM
      1 O           2.6200   -1.9406    0.0000 O.3     1  UNL1       -0.3885
      2 O           4.8684   -2.1092    0.0000 O.3     1  UNL1       -0.3911
      3 C           3.9860   -0.5746    0.0000 C.3     1  UNL1        0.0204
      4 C           3.9860    0.4254    0.0000 C.3     1  UNL1       -0.0118
      5 C           3.1200    0.9254    0.0000 C.3     1  UNL1       -0.0319
      6 C           3.1200   -1.0746    0.0000 C.3     1  UNL1        0.0690
      7 C           2.2540    0.4254    0.0000 C.3     1  UNL1       -0.0468
      8 C           2.2540   -0.5746    0.0000 C.3     1  UNL1       -0.0236
      9 C           4.8800   -1.1093    0.0000 C.3     1  UNL1        0.0648
     10 C           3.1200    1.9254    0.0000 C.3     1  UNL1       -0.0433
     11 C           4.8800    0.9601    0.0000 C.2     1  UNL1       -0.0811
     12 C           5.7860   -0.5954    0.0000 C.3     1  UNL1       -0.0055
     13 C           3.6200   -1.9406    0.0000 C.3     1  UNL1       -0.0357
     14 C           5.7860    0.4462    0.0000 C.2     1  UNL1       -0.0738
     15 C           2.2540    2.4254    0.0000 C.3     1  UNL1       -0.0624
     16 C           3.9860    2.4254    0.0000 C.3     1  UNL1       -0.0624
     17 C           6.6501    0.9495    0.0000 C.3     1  UNL1       -0.0437
     18 H           3.9795   -1.4246    0.0000 H       1  UNL1        0.0359
     19 H           3.9795    1.2754    0.0000 H       1  UNL1        0.0350
     20 H           2.5831    1.2354    0.0000 H       1  UNL1        0.0309
     21 H           2.0419    1.0080    0.0000 H       1  UNL1        0.0269
     22 H           1.6434    0.3177    0.0000 H       1  UNL1        0.0269
     23 H           1.6434   -0.4669    0.0000 H       1  UNL1        0.0293
     24 H           2.0419   -1.1572    0.0000 H       1  UNL1        0.0293
     25 H           5.4139   -1.4244    0.0000 H       1  UNL1        0.0600
     26 H           3.6569    1.6154    0.0000 H       1  UNL1        0.0298
     27 H           4.8728    1.5800    0.0000 H       1  UNL1        0.0575
     28 H           5.9951   -1.1791    0.0000 H       1  UNL1        0.0335
     29 H           6.3969   -0.4893    0.0000 H       1  UNL1        0.0335
     30 H           3.0831   -2.2506    0.0000 H       1  UNL1        0.0257
     31 H           3.9300   -2.4776    0.0000 H       1  UNL1        0.0257
     32 H           4.1569   -1.6306    0.0000 H       1  UNL1        0.0257
     33 H           2.0000   -1.9406    0.0000 H       1  UNL1        0.2102
     34 H           4.2960    1.8885    0.0000 H       1  UNL1        0.0232
     35 H           4.5230    2.7354    0.0000 H       1  UNL1        0.0232
     36 H           2.5640    2.9623    0.0000 H       1  UNL1        0.0232
     37 H           3.6760    2.9623    0.0000 H       1  UNL1        0.0232
     38 H           1.7170    2.7354    0.0000 H       1  UNL1        0.0232
     39 H           1.9440    1.8885    0.0000 H       1  UNL1        0.0232
     40 H           5.4017   -2.4254    0.0000 H       1  UNL1        0.2098
     41 H           6.9622    0.4138    0.0000 H       1  UNL1        0.0274
     42 H           7.1859    1.2616    0.0000 H       1  UNL1        0.0274
     43 H           6.3381    1.4853    0.0000 H       1  UNL1        0.0274
@<TRIPOS>BOND
     1     6     1    1
     2     1    33    1
     3     9     2    1
     4     2    40    1
     5     3     4    1
     6     3     6    1
     7     3     9    1
     8     3    18    1
     9     4     5    1
    10     4    11    1
    11     4    19    1
    12     5     7    1
    13     5    10    1
    14     5    20    1
    15     6     8    1
    16     6    13    1
    17     7     8    1
    18     7    21    1
    19     7    22    1
    20     8    23    1
    21     8    24    1
    22     9    12    1
    23     9    25    1
    24    10    15    1
    25    10    16    1
    26    10    26    1
    27    11    14    2
    28    11    27    1
    29    12    14    1
    30    12    28    1
    31    12    29    1
    32    13    30    1
    33    13    31    1
    34    13    32    1
    35    14    17    1
    36    15    36    1
    37    15    38    1
    38    15    39    1
    39    16    34    1
    40    16    35    1
    41    16    37    1
    42    17    41    1
    43    17    42    1
    44    17    43    1
