@<TRIPOS>MOLECULE
IMPHY013055
 50 49 0 0 0
SMALL
GASTEIGER

@<TRIPOS>ATOM
      1 O           6.3301    0.7500    0.0000 O.3     1  UNL1       -0.4646
      2 O           7.1962   -0.7500    0.0000 O.2     1  UNL1       -0.2509
      3 C          11.5263    0.7500    0.0000 C.3     1  UNL1       -0.0531
      4 C          10.6603    0.2500    0.0000 C.3     1  UNL1       -0.0530
      5 C          12.3923    0.2500    0.0000 C.3     1  UNL1       -0.0531
      6 C           9.7942    0.7500    0.0000 C.3     1  UNL1       -0.0526
      7 C          13.2583    0.7500    0.0000 C.3     1  UNL1       -0.0531
      8 C           8.9282    0.2500    0.0000 C.3     1  UNL1       -0.0430
      9 C          14.1244    0.2500    0.0000 C.3     1  UNL1       -0.0533
     10 C           8.0622    0.7500    0.0000 C.3     1  UNL1        0.0449
     11 C          14.9904    0.7500    0.0000 C.3     1  UNL1       -0.0559
     12 C           4.5981    0.7500    0.0000 C.3     1  UNL1       -0.0185
     13 C           7.1962    0.2500    0.0000 C.2     1  UNL1        0.3071
     14 C           3.7320    0.2500    0.0000 C.3     1  UNL1       -0.0502
     15 C          15.8564    0.2500    0.0000 C.3     1  UNL1       -0.0653
     16 C           5.4641    0.2500    0.0000 C.3     1  UNL1        0.0925
     17 C           2.8660    0.7500    0.0000 C.3     1  UNL1       -0.0558
     18 C           2.0000    0.2500    0.0000 C.3     1  UNL1       -0.0653
     19 H          11.9248    1.2250    0.0000 H       1  UNL1        0.0265
     20 H          11.1278    1.2250    0.0000 H       1  UNL1        0.0265
     21 H          10.2617   -0.2249    0.0000 H       1  UNL1        0.0265
     22 H          11.0588   -0.2249    0.0000 H       1  UNL1        0.0265
     23 H          11.9938   -0.2249    0.0000 H       1  UNL1        0.0265
     24 H          12.7908   -0.2249    0.0000 H       1  UNL1        0.0265
     25 H          10.1928    1.2250    0.0000 H       1  UNL1        0.0265
     26 H           9.3957    1.2250    0.0000 H       1  UNL1        0.0265
     27 H          13.6569    1.2250    0.0000 H       1  UNL1        0.0265
     28 H          12.8598    1.2250    0.0000 H       1  UNL1        0.0265
     29 H           8.5297   -0.2249    0.0000 H       1  UNL1        0.0270
     30 H           9.3267   -0.2249    0.0000 H       1  UNL1        0.0270
     31 H          13.7258   -0.2249    0.0000 H       1  UNL1        0.0265
     32 H          14.5229   -0.2249    0.0000 H       1  UNL1        0.0265
     33 H           8.4607    1.2250    0.0000 H       1  UNL1        0.0377
     34 H           7.6636    1.2250    0.0000 H       1  UNL1        0.0377
     35 H          15.3889    1.2250    0.0000 H       1  UNL1        0.0263
     36 H          14.5919    1.2250    0.0000 H       1  UNL1        0.0263
     37 H           4.9966    1.2250    0.0000 H       1  UNL1        0.0298
     38 H           4.1996    1.2250    0.0000 H       1  UNL1        0.0298
     39 H           3.3335   -0.2249    0.0000 H       1  UNL1        0.0266
     40 H           4.1306   -0.2249    0.0000 H       1  UNL1        0.0266
     41 H          15.5464   -0.2869    0.0000 H       1  UNL1        0.0230
     42 H          16.3933   -0.0600    0.0000 H       1  UNL1        0.0230
     43 H          16.1664    0.7869    0.0000 H       1  UNL1        0.0230
     44 H           5.0656   -0.2249    0.0000 H       1  UNL1        0.0697
     45 H           5.8626   -0.2249    0.0000 H       1  UNL1        0.0697
     46 H           3.2646    1.2250    0.0000 H       1  UNL1        0.0263
     47 H           2.4675    1.2250    0.0000 H       1  UNL1        0.0263
     48 H           1.6900    0.7869    0.0000 H       1  UNL1        0.0230
     49 H           1.4631   -0.0600    0.0000 H       1  UNL1        0.0230
     50 H           2.3100   -0.2869    0.0000 H       1  UNL1        0.0230
@<TRIPOS>BOND
     1     1    13    1
     2     1    16    1
     3     2    13    2
     4     3     4    1
     5     3     5    1
     6     3    19    1
     7     3    20    1
     8     4     6    1
     9     4    21    1
    10     4    22    1
    11     5     7    1
    12     5    23    1
    13     5    24    1
    14     6     8    1
    15     6    25    1
    16     6    26    1
    17     7     9    1
    18     7    27    1
    19     7    28    1
    20     8    10    1
    21     8    29    1
    22     8    30    1
    23     9    11    1
    24     9    31    1
    25     9    32    1
    26    10    13    1
    27    10    33    1
    28    10    34    1
    29    11    15    1
    30    11    35    1
    31    11    36    1
    32    12    14    1
    33    12    16    1
    34    12    37    1
    35    12    38    1
    36    14    17    1
    37    14    39    1
    38    14    40    1
    39    15    41    1
    40    15    42    1
    41    15    43    1
    42    16    44    1
    43    16    45    1
    44    17    18    1
    45    17    46    1
    46    17    47    1
    47    18    48    1
    48    18    49    1
    49    18    50    1
