@<TRIPOS>MOLECULE
IMPHY017086
 38 37 0 0 0
SMALL
GASTEIGER

@<TRIPOS>ATOM
      1 C           5.4641    0.2500    0.0000 C.3     1  UNL1       -0.0439
      2 C           6.3301    0.7500    0.0000 C.3     1  UNL1       -0.0505
      3 C           7.1962    0.2500    0.0000 C.3     1  UNL1       -0.0526
      4 C           4.5981    0.7500    0.0000 C.3     1  UNL1       -0.0505
      5 C           8.0622    0.7500    0.0000 C.3     1  UNL1       -0.0507
      6 C           8.9282    0.2500    0.0000 C.3     1  UNL1       -0.0467
      7 C           3.7320    0.2500    0.0000 C.3     1  UNL1       -0.0531
      8 C           5.4641   -0.7500    0.0000 C.3     1  UNL1       -0.0624
      9 C           2.8660    0.7500    0.0000 C.3     1  UNL1       -0.0559
     10 C           9.7942    0.7500    0.0000 C.3     1  UNL1       -0.0627
     11 C           8.9282   -0.7500    0.0000 C.3     1  UNL1       -0.0627
     12 C           2.0000    0.2500    0.0000 C.3     1  UNL1       -0.0653
     13 H           6.0010   -0.0600    0.0000 H       1  UNL1        0.0298
     14 H           6.7287    1.2250    0.0000 H       1  UNL1        0.0268
     15 H           5.9316    1.2250    0.0000 H       1  UNL1        0.0268
     16 H           6.7976   -0.2249    0.0000 H       1  UNL1        0.0265
     17 H           7.5947   -0.2249    0.0000 H       1  UNL1        0.0265
     18 H           4.9966    1.2250    0.0000 H       1  UNL1        0.0268
     19 H           4.1996    1.2250    0.0000 H       1  UNL1        0.0268
     20 H           8.4607    1.2250    0.0000 H       1  UNL1        0.0268
     21 H           7.6636    1.2250    0.0000 H       1  UNL1        0.0268
     22 H           9.4651   -0.0600    0.0000 H       1  UNL1        0.0295
     23 H           3.3335   -0.2249    0.0000 H       1  UNL1        0.0265
     24 H           4.1306   -0.2249    0.0000 H       1  UNL1        0.0265
     25 H           4.8441   -0.7500    0.0000 H       1  UNL1        0.0232
     26 H           5.4641   -1.3700    0.0000 H       1  UNL1        0.0232
     27 H           6.0841   -0.7500    0.0000 H       1  UNL1        0.0232
     28 H           3.2646    1.2250    0.0000 H       1  UNL1        0.0263
     29 H           2.4675    1.2250    0.0000 H       1  UNL1        0.0263
     30 H          10.1042    0.2131    0.0000 H       1  UNL1        0.0232
     31 H          10.3312    1.0600    0.0000 H       1  UNL1        0.0232
     32 H           9.4842    1.2869    0.0000 H       1  UNL1        0.0232
     33 H           8.3082   -0.7500    0.0000 H       1  UNL1        0.0232
     34 H           8.9282   -1.3700    0.0000 H       1  UNL1        0.0232
     35 H           9.5482   -0.7500    0.0000 H       1  UNL1        0.0232
     36 H           1.6900    0.7869    0.0000 H       1  UNL1        0.0230
     37 H           1.4631   -0.0600    0.0000 H       1  UNL1        0.0230
     38 H           2.3100   -0.2869    0.0000 H       1  UNL1        0.0230
@<TRIPOS>BOND
     1     1     2    1
     2     1     4    1
     3     1     8    1
     4     1    13    1
     5     2     3    1
     6     2    14    1
     7     2    15    1
     8     3     5    1
     9     3    16    1
    10     3    17    1
    11     4     7    1
    12     4    18    1
    13     4    19    1
    14     5     6    1
    15     5    20    1
    16     5    21    1
    17     6    10    1
    18     6    11    1
    19     6    22    1
    20     7     9    1
    21     7    23    1
    22     7    24    1
    23     8    25    1
    24     8    26    1
    25     8    27    1
    26     9    12    1
    27     9    28    1
    28     9    29    1
    29    10    30    1
    30    10    31    1
    31    10    32    1
    32    11    33    1
    33    11    34    1
    34    11    35    1
    35    12    36    1
    36    12    37    1
    37    12    38    1
