@<TRIPOS>MOLECULE
IMPHY005339
 36 40 0 0 0
SMALL
GASTEIGER

@<TRIPOS>ATOM
      1 O           6.9742    1.4476    0.0000 O.3     1  UNL1       -0.4520
      2 O           6.9742    3.0570    0.0000 O.3     1  UNL1       -0.4526
      3 O           5.2151   -2.9444    0.0000 O.3     1  UNL1       -0.5068
      4 N           2.5466    1.7737    0.0000 N.3     1  UNL1       -0.3087
      5 C           3.3859    1.2455    0.0000 C.3     1  UNL1        0.0378
      6 C           4.2959    1.7523    0.0000 C.ar    1  UNL1       -0.0155
      7 C           3.3779    0.2039    0.0000 C.3     1  UNL1       -0.0074
      8 C           5.1619    1.2523    0.0000 C.ar    1  UNL1        0.0328
      9 C           4.2959    2.7523    0.0000 C.ar    1  UNL1       -0.0372
     10 C           3.4377    3.2492    0.0000 C.3     1  UNL1       -0.0146
     11 C           2.5722    2.7651    0.0000 C.3     1  UNL1        0.0004
     12 C           4.2799   -0.3169    0.0000 C.ar    1  UNL1       -0.0343
     13 C           5.1780    0.2108    0.0000 C.ar    1  UNL1       -0.0105
     14 C           6.0279    1.7523    0.0000 C.ar    1  UNL1        0.1742
     15 C           5.1619    3.2523    0.0000 C.ar    1  UNL1       -0.0126
     16 C           6.0279    2.7523    0.0000 C.ar    1  UNL1        0.1671
     17 C           4.2716   -1.4019    0.0000 C.ar    1  UNL1       -0.0164
     18 C           6.1299   -0.3098    0.0000 C.ar    1  UNL1       -0.0502
     19 C           7.5578    2.2523    0.0000 C.3     1  UNL1        0.2333
     20 C           5.2112   -1.9444    0.0000 C.ar    1  UNL1        0.1172
     21 C           6.1466   -1.3947    0.0000 C.ar    1  UNL1       -0.0196
     22 H           2.6402    0.8375    0.0000 H       1  UNL1        0.0513
     23 H           2.7678    0.3147    0.0000 H       1  UNL1        0.0332
     24 H           3.1643   -0.3782    0.0000 H       1  UNL1        0.0332
     25 H           3.8387    3.7221    0.0000 H       1  UNL1        0.0326
     26 H           3.0436    3.7279    0.0000 H       1  UNL1        0.0326
     27 H           2.0000    1.4810    0.0000 H       1  UNL1        0.1225
     28 H           2.3704    3.3513    0.0000 H       1  UNL1        0.0427
     29 H           1.9594    2.6707    0.0000 H       1  UNL1        0.0427
     30 H           5.1619    3.8723    0.0000 H       1  UNL1        0.0658
     31 H           3.7334   -1.7098    0.0000 H       1  UNL1        0.0657
     32 H           6.6608    0.0105    0.0000 H       1  UNL1        0.0625
     33 H           8.0186    1.8376    0.0000 H       1  UNL1        0.1166
     34 H           8.0186    2.6670    0.0000 H       1  UNL1        0.1166
     35 H           6.6871   -1.6984    0.0000 H       1  UNL1        0.0654
     36 H           5.7532   -3.2523    0.0000 H       1  UNL1        0.2921
@<TRIPOS>BOND
     1     1    14    1
     2     1    19    1
     3     2    16    1
     4     2    19    1
     5     3    20    1
     6     3    36    1
     7     4     5    1
     8     4    11    1
     9     4    27    1
    10     5     6    1
    11     5     7    1
    12     5    22    1
    13     6     8   ar
    14     6     9   ar
    15     7    12    1
    16     7    23    1
    17     7    24    1
    18     8    13    1
    19     8    14   ar
    20     9    10    1
    21     9    15   ar
    22    10    11    1
    23    10    25    1
    24    10    26    1
    25    11    28    1
    26    11    29    1
    27    12    13   ar
    28    12    17   ar
    29    13    18   ar
    30    14    16   ar
    31    15    16   ar
    32    15    30    1
    33    17    20   ar
    34    17    31    1
    35    18    21   ar
    36    18    32    1
    37    19    33    1
    38    19    34    1
    39    20    21   ar
    40    21    35    1
