@<TRIPOS>MOLECULE
IMPHY010190
 51 51 0 0 0
SMALL
GASTEIGER

@<TRIPOS>ATOM
      1 O           2.8090   -3.2874    0.0000 O.2     1  UNL1       -0.4708
      2 O          11.0395    0.0513    0.0000 O.3     1  UNL1       -0.4773
      3 O           9.4572   -0.6532    0.0000 O.2     1  UNL1       -0.2455
      4 C           7.0614    0.4694    0.0000 C.3     1  UNL1       -0.0286
      5 C           8.0559    0.3649    0.0000 C.3     1  UNL1       -0.0303
      6 C           6.4736   -0.3396    0.0000 C.2     1  UNL1       -0.0762
      7 C           4.8913   -1.0441    0.0000 C.3     1  UNL1       -0.0304
      8 C           5.4791   -0.2350    0.0000 C.2     1  UNL1       -0.0847
      9 C          10.2260    1.8784    0.0000 C.3     1  UNL1       -0.0178
     10 C           3.8968   -0.9395    0.0000 C.3     1  UNL1       -0.0213
     11 C           8.6437    1.1739    0.0000 C.2     1  UNL1       -0.0738
     12 C           9.6382    1.0694    0.0000 C.2     1  UNL1        0.0328
     13 C          11.2206    1.7739    0.0000 C.3     1  UNL1       -0.0303
     14 C           6.8804   -1.2531    0.0000 C.3     1  UNL1       -0.0438
     15 C           3.3090   -1.7486    0.0000 C.ar    1  UNL1       -0.0094
     16 C          11.8083    2.5829    0.0000 C.2     1  UNL1       -0.0850
     17 C          10.0450    0.1559    0.0000 C.2     1  UNL1        0.3325
     18 C          12.8029    2.4784    0.0000 C.2     1  UNL1       -0.0796
     19 C           2.3090   -1.7486    0.0000 C.ar    1  UNL1       -0.0207
     20 C           3.6180   -2.6996    0.0000 C.ar    1  UNL1        0.0948
     21 C           2.0000   -2.6996    0.0000 C.ar    1  UNL1        0.0919
     22 C          13.3906    3.2874    0.0000 C.3     1  UNL1       -0.0440
     23 C          13.2096    1.5648    0.0000 C.3     1  UNL1       -0.0440
     24 H           7.2323    1.0654    0.0000 H       1  UNL1        0.0313
     25 H           6.5042    0.7412    0.0000 H       1  UNL1        0.0313
     26 H           7.8850   -0.2311    0.0000 H       1  UNL1        0.0311
     27 H           8.6132    0.0931    0.0000 H       1  UNL1        0.0311
     28 H           4.7204   -1.6400    0.0000 H       1  UNL1        0.0311
     29 H           5.4486   -1.3158    0.0000 H       1  UNL1        0.0311
     30 H          10.3969    2.4744    0.0000 H       1  UNL1        0.0318
     31 H           9.6688    2.1502    0.0000 H       1  UNL1        0.0318
     32 H           5.2269    0.3314    0.0000 H       1  UNL1        0.0572
     33 H           4.0677   -0.3436    0.0000 H       1  UNL1        0.0317
     34 H           3.3396   -0.6677    0.0000 H       1  UNL1        0.0317
     35 H           8.3916    1.7403    0.0000 H       1  UNL1        0.0577
     36 H          11.0497    1.1779    0.0000 H       1  UNL1        0.0311
     37 H          11.7778    1.5021    0.0000 H       1  UNL1        0.0311
     38 H           6.3140   -1.5053    0.0000 H       1  UNL1        0.0274
     39 H           7.1325   -1.8195    0.0000 H       1  UNL1        0.0274
     40 H           7.4468   -1.0010    0.0000 H       1  UNL1        0.0274
     41 H          11.5562    3.1493    0.0000 H       1  UNL1        0.0572
     42 H           1.9446   -1.2470    0.0000 H       1  UNL1        0.0652
     43 H           4.2077   -2.8912    0.0000 H       1  UNL1        0.1032
     44 H           1.4103   -2.8912    0.0000 H       1  UNL1        0.1029
     45 H          13.8922    2.9230    0.0000 H       1  UNL1        0.0274
     46 H          13.7551    3.7890    0.0000 H       1  UNL1        0.0274
     47 H          12.8891    3.6518    0.0000 H       1  UNL1        0.0274
     48 H          12.6432    1.3127    0.0000 H       1  UNL1        0.0274
     49 H          13.4618    0.9984    0.0000 H       1  UNL1        0.0274
     50 H          13.7760    1.8170    0.0000 H       1  UNL1        0.0274
     51 H          11.2917   -0.5151    0.0000 H       1  UNL1        0.2954
@<TRIPOS>BOND
     1     1    20   ar
     2     1    21   ar
     3     2    17    1
     4     2    51    1
     5     3    17    2
     6     4     5    1
     7     4     6    1
     8     4    24    1
     9     4    25    1
    10     5    11    1
    11     5    26    1
    12     5    27    1
    13     6     8    2
    14     6    14    1
    15     7     8    1
    16     7    10    1
    17     7    28    1
    18     7    29    1
    19     8    32    1
    20     9    12    1
    21     9    13    1
    22     9    30    1
    23     9    31    1
    24    10    15    1
    25    10    33    1
    26    10    34    1
    27    11    12    2
    28    11    35    1
    29    12    17    1
    30    13    16    1
    31    13    36    1
    32    13    37    1
    33    14    38    1
    34    14    39    1
    35    14    40    1
    36    15    19   ar
    37    15    20   ar
    38    16    18    2
    39    16    41    1
    40    18    22    1
    41    18    23    1
    42    19    21   ar
    43    19    42    1
    44    20    43    1
    45    21    44    1
    46    22    45    1
    47    22    46    1
    48    22    47    1
    49    23    48    1
    50    23    49    1
    51    23    50    1
