@<TRIPOS>MOLECULE
IMPHY014124
 67 68 0 0 0
SMALL
GASTEIGER

@<TRIPOS>ATOM
      1 O           7.7331   -1.3450    0.0000 O.3     1  UNL1       -0.3405
      2 O           6.0010   -0.3450    0.0000 O.3     1  UNL1       -0.3461
      3 O           4.2690   -0.3450    0.0000 O.3     1  UNL1       -0.3461
      4 O           6.0010   -3.3450    0.0000 O.3     1  UNL1       -0.3865
      5 O           9.4651   -1.3450    0.0000 O.3     1  UNL1       -0.3446
      6 O           7.7331   -4.3450    0.0000 O.3     1  UNL1       -0.3864
      7 O           9.4651   -3.3450    0.0000 O.3     1  UNL1       -0.3841
      8 O           6.0010    1.6550    0.0000 O.3     1  UNL1       -0.3841
      9 O           4.2690    2.6550    0.0000 O.3     1  UNL1       -0.3864
     10 O           2.5369    1.6550    0.0000 O.3     1  UNL1       -0.3869
     11 C           6.8671   -1.8450    0.0000 C.3     1  UNL1        0.1134
     12 C           6.8671   -2.8450    0.0000 C.3     1  UNL1        0.1119
     13 C           7.7331   -3.3450    0.0000 C.3     1  UNL1        0.1141
     14 C           8.5991   -2.8450    0.0000 C.3     1  UNL1        0.1341
     15 C           8.5991   -1.8450    0.0000 C.3     1  UNL1        0.1882
     16 C           6.0010   -1.3450    0.0000 C.3     1  UNL1        0.0796
     17 C           5.1350    0.1550    0.0000 C.3     1  UNL1        0.1876
     18 C           5.1350    1.1550    0.0000 C.3     1  UNL1        0.1341
     19 C           4.2690    1.6550    0.0000 C.3     1  UNL1        0.1137
     20 C           3.4030    1.1550    0.0000 C.3     1  UNL1        0.1069
     21 C           3.4030    0.1550    0.0000 C.3     1  UNL1        0.0792
     22 C           9.4651   -0.3450    0.0000 C.3     1  UNL1        0.0692
     23 C          10.3312    0.1550    0.0000 C.2     1  UNL1       -0.0596
     24 C          10.3312    1.1550    0.0000 C.2     1  UNL1       -0.0741
     25 C          11.1972    1.6550    0.0000 C.3     1  UNL1       -0.0285
     26 C           9.4651    1.6550    0.0000 C.3     1  UNL1       -0.0437
     27 C          11.1972    2.6550    0.0000 C.3     1  UNL1       -0.0308
     28 C          12.0632    3.1550    0.0000 C.2     1  UNL1       -0.0850
     29 C          12.0632    4.1550    0.0000 C.2     1  UNL1       -0.0796
     30 C          12.9292    4.6550    0.0000 C.3     1  UNL1       -0.0440
     31 C          11.1972    4.6550    0.0000 C.3     1  UNL1       -0.0440
     32 H           6.8671   -1.2250    0.0000 H       1  UNL1        0.0647
     33 H           6.8671   -3.4650    0.0000 H       1  UNL1        0.0647
     34 H           7.1962   -3.6550    0.0000 H       1  UNL1        0.0648
     35 H           8.5991   -3.4650    0.0000 H       1  UNL1        0.0671
     36 H           8.5991   -1.2250    0.0000 H       1  UNL1        0.0938
     37 H           5.3905   -1.2373    0.0000 H       1  UNL1        0.0587
     38 H           5.7890   -1.9276    0.0000 H       1  UNL1        0.0587
     39 H           5.6720    0.4650    0.0000 H       1  UNL1        0.0937
     40 H           5.1350    1.7750    0.0000 H       1  UNL1        0.0671
     41 H           3.7320    1.9650    0.0000 H       1  UNL1        0.0647
     42 H           3.4030    1.7750    0.0000 H       1  UNL1        0.0643
     43 H           2.7924    0.2627    0.0000 H       1  UNL1        0.0587
     44 H           3.1909   -0.4276    0.0000 H       1  UNL1        0.0587
     45 H           5.4641   -3.0350    0.0000 H       1  UNL1        0.2100
     46 H           7.1962   -4.6550    0.0000 H       1  UNL1        0.2100
     47 H          10.0021   -3.0350    0.0000 H       1  UNL1        0.2101
     48 H           9.2531    0.2376    0.0000 H       1  UNL1        0.0605
     49 H           8.8546   -0.4527    0.0000 H       1  UNL1        0.0605
     50 H           6.0010    2.2750    0.0000 H       1  UNL1        0.2101
     51 H           3.7320    2.9650    0.0000 H       1  UNL1        0.2100
     52 H           2.0000    1.3450    0.0000 H       1  UNL1        0.2100
     53 H          10.8681   -0.1550    0.0000 H       1  UNL1        0.0594
     54 H          11.4092    1.0724    0.0000 H       1  UNL1        0.0313
     55 H          11.8078    1.7627    0.0000 H       1  UNL1        0.0313
     56 H           9.7751    2.1919    0.0000 H       1  UNL1        0.0274
     57 H           8.9282    1.9650    0.0000 H       1  UNL1        0.0274
     58 H           9.1551    1.1181    0.0000 H       1  UNL1        0.0274
     59 H          10.9851    3.2376    0.0000 H       1  UNL1        0.0310
     60 H          10.5866    2.5473    0.0000 H       1  UNL1        0.0310
     61 H          12.6002    2.8450    0.0000 H       1  UNL1        0.0572
     62 H          13.2392    4.1181    0.0000 H       1  UNL1        0.0274
     63 H          13.4662    4.9650    0.0000 H       1  UNL1        0.0274
     64 H          12.6192    5.1919    0.0000 H       1  UNL1        0.0274
     65 H          11.5072    5.1919    0.0000 H       1  UNL1        0.0274
     66 H          10.6603    4.9650    0.0000 H       1  UNL1        0.0274
     67 H          10.8872    4.1181    0.0000 H       1  UNL1        0.0274
@<TRIPOS>BOND
     1     1    11    1
     2     1    15    1
     3     2    16    1
     4    17     2    1
     5     3    17    1
     6     3    21    1
     7    12     4    1
     8     4    45    1
     9    15     5    1
    10     5    22    1
    11    13     6    1
    12     6    46    1
    13    14     7    1
    14     7    47    1
    15    18     8    1
    16     8    50    1
    17    19     9    1
    18     9    51    1
    19    20    10    1
    20    10    52    1
    21    11    12    1
    22    11    16    1
    23    11    32    1
    24    12    13    1
    25    12    33    1
    26    13    14    1
    27    13    34    1
    28    14    15    1
    29    14    35    1
    30    15    36    1
    31    16    37    1
    32    16    38    1
    33    17    18    1
    34    17    39    1
    35    18    19    1
    36    18    40    1
    37    19    20    1
    38    19    41    1
    39    20    21    1
    40    20    42    1
    41    21    43    1
    42    21    44    1
    43    22    23    1
    44    22    48    1
    45    22    49    1
    46    23    24    2
    47    23    53    1
    48    24    25    1
    49    24    26    1
    50    25    27    1
    51    25    54    1
    52    25    55    1
    53    26    56    1
    54    26    57    1
    55    26    58    1
    56    27    28    1
    57    27    59    1
    58    27    60    1
    59    28    29    2
    60    28    61    1
    61    29    30    1
    62    29    31    1
    63    30    62    1
    64    30    63    1
    65    30    64    1
    66    31    65    1
    67    31    66    1
    68    31    67    1
