@<TRIPOS>MOLECULE
IMPHY005379
 191 206 0 0 0
SMALL
GASTEIGER

@<TRIPOS>ATOM
      1 O          19.0017   -8.3170    0.0000 O.3     1  UNL1       -0.4501
      2 O          15.4573   -5.3838    0.0000 O.3     1  UNL1       -0.4514
      3 O          17.2560   -8.9060    0.0000 O.3     1  UNL1       -0.3504
      4 O          15.9429   -5.4864    0.0000 O.3     1  UNL1       -0.3281
      5 O          18.4674   -3.7474    0.0000 O.3     1  UNL1       -0.4476
      6 O          17.1226  -10.0274    0.0000 O.3     1  UNL1       -0.3539
      7 O          18.0562   -9.6691    0.0000 O.3     1  UNL1       -0.3539
      8 O          16.6691   -2.6650    0.0000 O.3     1  UNL1       -0.4500
      9 O          18.3088   -4.8024    0.0000 O.3     1  UNL1       -0.4275
     10 O          15.5443   -9.5904    0.0000 O.2     1  UNL1       -0.2867
     11 O          13.0642   -3.6309    0.0000 O.3     1  UNL1       -0.4584
     12 O          15.0125   -6.9855    0.0000 O.2     1  UNL1       -0.2453
     13 O          21.1337   -8.0726    0.0000 O.3     1  UNL1       -0.5009
     14 O          19.9775   -4.0882    0.0000 O.2     1  UNL1       -0.2449
     15 O          21.9505   -6.1077    0.0000 O.3     1  UNL1       -0.5032
     16 O           9.3696    2.9694    0.0000 O.3     1  UNL1       -0.3281
     17 O           8.7124    5.5781    0.0000 O.3     1  UNL1       -0.4512
     18 O           6.8621    4.7393    0.0000 O.3     1  UNL1       -0.4500
     19 O           6.6678    2.7002    0.0000 O.3     1  UNL1       -0.4476
     20 O          17.2763   -1.1991    0.0000 O.2     1  UNL1       -0.2449
     21 O           8.3457    1.5254    0.0000 O.3     1  UNL1       -0.4274
     22 O          18.9512   -3.1075    0.0000 O.2     1  UNL1       -0.2449
     23 O          10.6927    5.3706    0.0000 O.3     1  UNL1       -0.4584
     24 O          11.8054   -2.6650    0.0000 O.2     1  UNL1       -0.2449
     25 O          13.4833    0.5164    0.0000 O.3     1  UNL1       -0.5028
     26 O          10.8098   -0.1859    0.0000 O.3     1  UNL1       -0.4476
     27 O          14.1003    0.8307    0.0000 O.3     1  UNL1       -0.5028
     28 O          16.8990    1.4457    0.0000 O.3     1  UNL1       -0.5032
     29 O          14.9204    1.9758    0.0000 O.3     1  UNL1       -0.5009
     30 O          10.2665    6.2427    0.0000 O.2     1  UNL1       -0.2449
     31 O          12.2581    1.2625    0.0000 O.3     1  UNL1       -0.5009
     32 O           5.8523    3.3321    0.0000 O.2     1  UNL1       -0.2449
     33 O           7.3938    1.1276    0.0000 O.2     1  UNL1       -0.2449
     34 O          10.0717    1.3811    0.0000 O.2     1  UNL1       -0.2447
     35 O          22.3828   -3.2524    0.0000 O.3     1  UNL1       -0.5032
     36 O          19.9659   -0.7708    0.0000 O.3     1  UNL1       -0.5032
     37 O           9.6965    5.4578    0.0000 O.2     1  UNL1       -0.2449
     38 O          21.8907   -1.3139    0.0000 O.3     1  UNL1       -0.5009
     39 O           9.5823    9.8527    0.0000 O.3     1  UNL1       -0.5028
     40 O          10.5722    9.7661    0.0000 O.3     1  UNL1       -0.5028
     41 O          10.6431   -2.1789    0.0000 O.3     1  UNL1       -0.5008
     42 O           6.3683    8.3691    0.0000 O.3     1  UNL1       -0.5032
     43 O           7.5432   10.0470    0.0000 O.3     1  UNL1       -0.5009
     44 O           7.1911   -1.8903    0.0000 O.3     1  UNL1       -0.5032
     45 O          12.6140    9.6033    0.0000 O.3     1  UNL1       -0.5009
     46 O          13.4797    7.7469    0.0000 O.3     1  UNL1       -0.5032
     47 O           8.8338   -3.0312    0.0000 O.3     1  UNL1       -0.5008
     48 O           4.5233    7.4834    0.0000 O.3     1  UNL1       -0.5032
     49 O           2.5037    4.6690    0.0000 O.3     1  UNL1       -0.5032
     50 O           4.5790   -1.1255    0.0000 O.3     1  UNL1       -0.5032
     51 O           3.1271    2.0197    0.0000 O.3     1  UNL1       -0.5032
     52 O           2.7011    6.6592    0.0000 O.3     1  UNL1       -0.5009
     53 O           2.9451    0.0279    0.0000 O.3     1  UNL1       -0.5009
     54 C          17.7448   -7.1296    0.0000 C.3     1  UNL1        0.0915
     55 C          17.9427   -8.1790    0.0000 C.3     1  UNL1        0.2834
     56 C          18.6887   -6.6164    0.0000 C.ar    1  UNL1        0.0263
     57 C          17.2791   -9.0398    0.0000 C.3     1  UNL1        0.2977
     58 C          16.6737   -7.0470    0.0000 C.2     1  UNL1        0.0540
     59 C          15.7031   -4.3380    0.0000 C.3     1  UNL1        0.1730
     60 C          16.4103   -3.6309    0.0000 C.3     1  UNL1        0.1851
     61 C          17.4561   -3.3851    0.0000 C.3     1  UNL1        0.2053
     62 C          19.4618   -7.3532    0.0000 C.ar    1  UNL1        0.1741
     63 C          14.7372   -4.5968    0.0000 C.3     1  UNL1        0.1371
     64 C          19.2018   -5.6726    0.0000 C.ar    1  UNL1        0.0701
     65 C          17.3115   -4.8764    0.0000 C.3     1  UNL1        0.2465
     66 C          16.2100   -8.8441    0.0000 C.2     1  UNL1        0.2218
     67 C          15.8940   -7.8042    0.0000 C.2     1  UNL1       -0.0028
     68 C          15.8196   -6.3952    0.0000 C.2     1  UNL1        0.3365
     69 C          20.5451   -7.2642    0.0000 C.ar    1  UNL1        0.2013
     70 C          13.7713   -4.3380    0.0000 C.3     1  UNL1        0.1226
     71 C          19.1192   -4.6014    0.0000 C.2     1  UNL1        0.3403
     72 C          20.2613   -5.4300    0.0000 C.ar    1  UNL1       -0.0020
     73 C          20.9622   -6.2606    0.0000 C.ar    1  UNL1        0.1628
     74 C          16.4103   -1.6991    0.0000 C.2     1  UNL1        0.3405
     75 C           8.6252    4.5819    0.0000 C.3     1  UNL1        0.1730
     76 C           7.6745    4.1563    0.0000 C.3     1  UNL1        0.1851
     77 C           7.5757    3.1193    0.0000 C.3     1  UNL1        0.2053
     78 C           9.4444    4.0083    0.0000 C.3     1  UNL1        0.1371
     79 C           8.4290    2.5219    0.0000 C.3     1  UNL1        0.2465
     80 C          19.0252   -4.1047    0.0000 C.2     1  UNL1        0.3417
     81 C          15.7031   -0.9919    0.0000 C.ar    1  UNL1        0.0740
     82 C          12.8054   -2.6650    0.0000 C.2     1  UNL1        0.3401
     83 C          10.3507    4.4309    0.0000 C.3     1  UNL1        0.1226
     84 C          14.7372   -0.7331    0.0000 C.ar    1  UNL1        0.0458
     85 C          13.0642   -1.6991    0.0000 C.ar    1  UNL1        0.0740
     86 C          13.7713   -0.9919    0.0000 C.ar    1  UNL1        0.0458
     87 C          19.7416   -3.4070    0.0000 C.ar    1  UNL1        0.0662
     88 C          16.4510   -0.2668    0.0000 C.ar    1  UNL1       -0.0017
     89 C          14.4521    0.2687    0.0000 C.ar    1  UNL1        0.1708
     90 C          12.0540   -1.4450    0.0000 C.ar    1  UNL1       -0.0009
     91 C          13.5172    0.0182    0.0000 C.ar    1  UNL1        0.1708
     92 C          16.1891    0.7413    0.0000 C.ar    1  UNL1        0.1628
     93 C          15.1830    1.0109    0.0000 C.ar    1  UNL1        0.2012
     94 C           9.2739    6.3641    0.0000 C.2     1  UNL1        0.3405
     95 C          19.4955   -2.4378    0.0000 C.ar    1  UNL1       -0.0023
     96 C          20.7040   -3.6786    0.0000 C.ar    1  UNL1       -0.0023
     97 C          11.7767   -0.4410    0.0000 C.ar    1  UNL1        0.1743
     98 C           5.9509    4.3272    0.0000 C.2     1  UNL1        0.3399
     99 C          12.5132    0.2956    0.0000 C.ar    1  UNL1        0.2021
    100 C           6.5768    1.7044    0.0000 C.2     1  UNL1        0.3400
    101 C           9.1670    0.9549    0.0000 C.2     1  UNL1        0.3453
    102 C           8.8513    7.2704    0.0000 C.ar    1  UNL1        0.0740
    103 C          10.2701    6.2769    0.0000 C.2     1  UNL1        0.3401
    104 C           9.0837   -0.0415    0.0000 C.ar    1  UNL1        0.1085
    105 C          21.4204   -2.9809    0.0000 C.ar    1  UNL1        0.1628
    106 C          20.2119   -1.7401    0.0000 C.ar    1  UNL1        0.1628
    107 C           9.4249    8.0895    0.0000 C.ar    1  UNL1        0.0458
    108 C           5.1385    4.9102    0.0000 C.ar    1  UNL1        0.0661
    109 C          10.8437    7.0961    0.0000 C.ar    1  UNL1        0.0740
    110 C          10.4211    8.0024    0.0000 C.ar    1  UNL1        0.0458
    111 C           9.9051   -0.6120    0.0000 C.ar    1  UNL1        0.1876
    112 C           5.6689    1.2853    0.0000 C.ar    1  UNL1        0.0661
    113 C          21.1743   -2.0116    0.0000 C.ar    1  UNL1        0.2006
    114 C           7.8123    7.3452    0.0000 C.ar    1  UNL1       -0.0017
    115 C           8.9993    9.0402    0.0000 C.ar    1  UNL1        0.1708
    116 C           8.1790   -0.4676    0.0000 C.ar    1  UNL1        0.0013
    117 C          11.0053    8.8648    0.0000 C.ar    1  UNL1        0.1708
    118 C          11.8798    6.9893    0.0000 C.ar    1  UNL1       -0.0017
    119 C           9.8218   -1.6086    0.0000 C.ar    1  UNL1        0.2060
    120 C           4.2273    4.4981    0.0000 C.ar    1  UNL1       -0.0023
    121 C           5.2371    5.9053    0.0000 C.ar    1  UNL1       -0.0023
    122 C           7.3649    8.2858    0.0000 C.ar    1  UNL1        0.1628
    123 C           4.8520    1.8621    0.0000 C.ar    1  UNL1       -0.0023
    124 C           5.5779    0.2895    0.0000 C.ar    1  UNL1       -0.0023
    125 C           7.9623    9.1390    0.0000 C.ar    1  UNL1        0.2012
    126 C           8.0957   -1.4642    0.0000 C.ar    1  UNL1        0.1630
    127 C          12.0436    8.7820    0.0000 C.ar    1  UNL1        0.2012
    128 C           8.9171   -2.0347    0.0000 C.ar    1  UNL1        0.2044
    129 C          12.4838    7.8379    0.0000 C.ar    1  UNL1        0.1628
    130 C           4.4247    6.4883    0.0000 C.ar    1  UNL1        0.1628
    131 C           3.4149    5.0811    0.0000 C.ar    1  UNL1        0.1628
    132 C           4.6700   -0.1297    0.0000 C.ar    1  UNL1        0.1628
    133 C           3.9440    1.4429    0.0000 C.ar    1  UNL1        0.1628
    134 C           3.5135    6.0762    0.0000 C.ar    1  UNL1        0.2006
    135 C           3.8530    0.4471    0.0000 C.ar    1  UNL1        0.2006
    136 H          17.6153   -6.5233    0.0000 H       1  UNL1        0.0467
    137 H          15.1021   -4.9390    0.0000 H       1  UNL1        0.0801
    138 H          17.0113   -3.0299    0.0000 H       1  UNL1        0.0813
    139 H          18.0154   -2.7450    0.0000 H       1  UNL1        0.0837
    140 H          14.3685   -5.3627    0.0000 H       1  UNL1        0.0670
    141 H          17.9284   -4.9386    0.0000 H       1  UNL1        0.1098
    142 H          15.2937   -7.6493    0.0000 H       1  UNL1        0.0659
    143 H          17.4334   -9.5000    0.0000 H       1  UNL1        0.2140
    144 H          13.2094   -4.6000    0.0000 H       1  UNL1        0.0725
    145 H          14.0813   -3.8011    0.0000 H       1  UNL1        0.0725
    146 H          20.4577   -4.8420    0.0000 H       1  UNL1        0.0663
    147 H          17.6044  -10.4176    0.0000 H       1  UNL1        0.2134
    148 H          18.6350   -9.4469    0.0000 H       1  UNL1        0.2134
    149 H          21.7502   -8.0071    0.0000 H       1  UNL1        0.2924
    150 H           7.9327    5.0748    0.0000 H       1  UNL1        0.0801
    151 H           7.1101    3.8997    0.0000 H       1  UNL1        0.0813
    152 H           7.0699    3.4779    0.0000 H       1  UNL1        0.0837
    153 H          10.1444    3.5262    0.0000 H       1  UNL1        0.0670
    154 H           7.8676    2.2588    0.0000 H       1  UNL1        0.1098
    155 H          22.1747   -5.5297    0.0000 H       1  UNL1        0.2923
    156 H          10.4584    3.8203    0.0000 H       1  UNL1        0.0725
    157 H          10.9683    4.3769    0.0000 H       1  UNL1        0.0725
    158 H          17.0479   -0.4342    0.0000 H       1  UNL1        0.0664
    159 H          11.6207   -1.8884    0.0000 H       1  UNL1        0.0664
    160 H          18.8988   -2.2694    0.0000 H       1  UNL1        0.0663
    161 H          20.8565   -4.2795    0.0000 H       1  UNL1        0.0663
    162 H          13.3159    1.1133    0.0000 H       1  UNL1        0.2923
    163 H          13.8447    1.3956    0.0000 H       1  UNL1        0.2923
    164 H           7.4626    6.8332    0.0000 H       1  UNL1        0.0664
    165 H          17.4972    1.2829    0.0000 H       1  UNL1        0.2923
    166 H          15.3572    2.4160    0.0000 H       1  UNL1        0.2924
    167 H           7.6698   -0.1140    0.0000 H       1  UNL1        0.0665
    168 H          11.6599    1.4253    0.0000 H       1  UNL1        0.2924
    169 H          12.1353    6.4244    0.0000 H       1  UNL1        0.0664
    170 H           4.1662    3.8811    0.0000 H       1  UNL1        0.0663
    171 H           5.8020    6.1608    0.0000 H       1  UNL1        0.0663
    172 H           4.9084    2.4795    0.0000 H       1  UNL1        0.0663
    173 H           6.0844   -0.0681    0.0000 H       1  UNL1        0.0663
    174 H          22.8269   -2.8199    0.0000 H       1  UNL1        0.2923
    175 H          20.4100   -0.3382    0.0000 H       1  UNL1        0.2923
    176 H          22.4874   -1.4823    0.0000 H       1  UNL1        0.2924
    177 H           9.3268   10.4176    0.0000 H       1  UNL1        0.2923
    178 H          10.9219   10.2781    0.0000 H       1  UNL1        0.2923
    179 H          11.2040   -1.9147    0.0000 H       1  UNL1        0.2924
    180 H           6.0147    7.8598    0.0000 H       1  UNL1        0.2923
    181 H           6.9258   10.1034    0.0000 H       1  UNL1        0.2924
    182 H           6.6818   -1.5366    0.0000 H       1  UNL1        0.2923
    183 H          13.2319    9.5517    0.0000 H       1  UNL1        0.2924
    184 H          13.7395    7.1840    0.0000 H       1  UNL1        0.2923
    185 H           8.2729   -3.2954    0.0000 H       1  UNL1        0.2924
    186 H           4.0196    7.8449    0.0000 H       1  UNL1        0.2923
    187 H           2.0000    5.0304    0.0000 H       1  UNL1        0.2923
    188 H           4.0160   -1.3854    0.0000 H       1  UNL1        0.2923
    189 H           3.1835    2.6370    0.0000 H       1  UNL1        0.2923
    190 H           2.7622    7.2762    0.0000 H       1  UNL1        0.2924
    191 H           2.8887   -0.5895    0.0000 H       1  UNL1        0.2924
@<TRIPOS>BOND
     1     1    55    1
     2     1    62    1
     3     2    59    1
     4     2    68    1
     5     3    55    1
     6     3   143    1
     7     4    63    1
     8     4    65    1
     9     5    61    1
    10     5    71    1
    11     6    57    1
    12     6   147    1
    13     7    57    1
    14     7   148    1
    15     8    60    1
    16     8    74    1
    17    65     9    1
    18     9    80    1
    19    10    66    2
    20    11    70    1
    21    11    82    1
    22    12    68    2
    23    13    69    1
    24    13   149    1
    25    14    71    2
    26    15    73    1
    27    15   155    1
    28    16    78    1
    29    16    79    1
    30    17    75    1
    31    17    94    1
    32    76    18    1
    33    18    98    1
    34    77    19    1
    35    19   100    1
    36    20    74    2
    37    79    21    1
    38    21   101    1
    39    22    80    2
    40    23    83    1
    41    23   103    1
    42    24    82    2
    43    25    89    1
    44    25   162    1
    45    26    97    1
    46    26   111    1
    47    27    91    1
    48    27   163    1
    49    28    92    1
    50    28   165    1
    51    29    93    1
    52    29   166    1
    53    30    94    2
    54    31    99    1
    55    31   168    1
    56    32    98    2
    57    33   100    2
    58    34   101    2
    59    35   105    1
    60    35   174    1
    61    36   106    1
    62    36   175    1
    63    37   103    2
    64    38   113    1
    65    38   176    1
    66    39   115    1
    67    39   177    1
    68    40   117    1
    69    40   178    1
    70    41   119    1
    71    41   179    1
    72    42   122    1
    73    42   180    1
    74    43   125    1
    75    43   181    1
    76    44   126    1
    77    44   182    1
    78    45   127    1
    79    45   183    1
    80    46   129    1
    81    46   184    1
    82    47   128    1
    83    47   185    1
    84    48   130    1
    85    48   186    1
    86    49   131    1
    87    49   187    1
    88    50   132    1
    89    50   188    1
    90    51   133    1
    91    51   189    1
    92    52   134    1
    93    52   190    1
    94    53   135    1
    95    53   191    1
    96    54    55    1
    97    54    56    1
    98    54    58    1
    99    54   136    1
   100    55    57    1
   101    56    62   ar
   102    56    64   ar
   103    57    66    1
   104    58    67    2
   105    58    68    1
   106    59    60    1
   107    59    63    1
   108    59   137    1
   109    60    61    1
   110    60   138    1
   111    61    65    1
   112    61   139    1
   113    62    69   ar
   114    63    70    1
   115    63   140    1
   116    64    71    1
   117    64    72   ar
   118    65   141    1
   119    66    67    1
   120    67   142    1
   121    69    73   ar
   122    70   144    1
   123    70   145    1
   124    72    73   ar
   125    72   146    1
   126    74    81    1
   127    75    76    1
   128    75    78    1
   129    75   150    1
   130    76    77    1
   131    76   151    1
   132    77    79    1
   133    77   152    1
   134    78    83    1
   135    78   153    1
   136    79   154    1
   137    80    87    1
   138    81    84   ar
   139    81    88   ar
   140    82    85    1
   141    83   156    1
   142    83   157    1
   143    84    86    1
   144    84    89   ar
   145    85    86   ar
   146    85    90   ar
   147    86    91   ar
   148    87    95   ar
   149    87    96   ar
   150    88    92   ar
   151    88   158    1
   152    89    93   ar
   153    90    97   ar
   154    90   159    1
   155    91    99   ar
   156    92    93   ar
   157    94   102    1
   158    95   106   ar
   159    95   160    1
   160    96   105   ar
   161    96   161    1
   162    97    99   ar
   163    98   108    1
   164   100   112    1
   165   101   104    1
   166   102   107   ar
   167   102   114   ar
   168   103   109    1
   169   104   111   ar
   170   104   116   ar
   171   105   113   ar
   172   106   113   ar
   173   107   110    1
   174   107   115   ar
   175   108   120   ar
   176   108   121   ar
   177   109   110   ar
   178   109   118   ar
   179   110   117   ar
   180   111   119   ar
   181   112   123   ar
   182   112   124   ar
   183   114   122   ar
   184   114   164    1
   185   115   125   ar
   186   116   126   ar
   187   116   167    1
   188   117   127   ar
   189   118   129   ar
   190   118   169    1
   191   119   128   ar
   192   120   131   ar
   193   120   170    1
   194   121   130   ar
   195   121   171    1
   196   122   125   ar
   197   123   133   ar
   198   123   172    1
   199   124   132   ar
   200   124   173    1
   201   126   128   ar
   202   127   129   ar
   203   130   134   ar
   204   131   134   ar
   205   132   135   ar
   206   133   135   ar
