@<TRIPOS>MOLECULE
IMPHY006794
 44 46 0 0 0
SMALL
GASTEIGER

@<TRIPOS>ATOM
      1 O           6.1061    0.2587    0.0000 O.3     1  UNL1       -0.4594
      2 O           6.6985   -1.3689    0.0000 O.2     1  UNL1       -0.2479
      3 O           4.2267   -0.4253    0.0000 O.3     1  UNL1       -0.3803
      4 N           8.6180    2.8557    0.0000 N.3     1  UNL1       -0.2992
      5 C           9.3546    1.8731    0.0000 C.3     1  UNL1        0.0138
      6 C           9.0958    0.9072    0.0000 C.3     1  UNL1        0.0138
      7 C          10.7536    1.3643    0.0000 C.3     1  UNL1       -0.0358
      8 C          10.4948    0.3984    0.0000 C.3     1  UNL1       -0.0358
      9 C           7.3214    1.5620    0.0000 C.3     1  UNL1        0.0000
     10 C           7.8748    0.0415    0.0000 C.3     1  UNL1        0.0000
     11 C           7.0458    0.6007    0.0000 C.3     1  UNL1        0.1060
     12 C           8.1180    3.7218    0.0000 C.3     1  UNL1       -0.0122
     13 C           5.9324   -0.7261    0.0000 C.2     1  UNL1        0.3366
     14 C           4.9927   -1.0681    0.0000 C.3     1  UNL1        0.1555
     15 C           4.8191   -2.0529    0.0000 C.3     1  UNL1        0.0089
     16 C           3.8794   -2.3949    0.0000 C.ar    1  UNL1       -0.0444
     17 C           3.1133   -1.7522    0.0000 C.ar    1  UNL1       -0.0585
     18 C           3.7057   -3.3798    0.0000 C.ar    1  UNL1       -0.0585
     19 C           2.1736   -2.0942    0.0000 C.ar    1  UNL1       -0.0615
     20 C           2.7660   -3.7218    0.0000 C.ar    1  UNL1       -0.0615
     21 C           2.0000   -3.0790    0.0000 C.ar    1  UNL1       -0.0617
     22 H           9.5746    2.6942    0.0000 H       1  UNL1        0.0464
     23 H           8.8758    0.0862    0.0000 H       1  UNL1        0.0464
     24 H          11.3475    1.1865    0.0000 H       1  UNL1        0.0281
     25 H          10.9485    1.9529    0.0000 H       1  UNL1        0.0281
     26 H          10.2998   -0.1902    0.0000 H       1  UNL1        0.0281
     27 H          11.0887    0.2206    0.0000 H       1  UNL1        0.0281
     28 H           7.3164    2.1820    0.0000 H       1  UNL1        0.0316
     29 H           6.7071    1.6458    0.0000 H       1  UNL1        0.0316
     30 H           7.4690   -0.4272    0.0000 H       1  UNL1        0.0316
     31 H           8.2914   -0.4176    0.0000 H       1  UNL1        0.0316
     32 H           6.9702   -0.0146    0.0000 H       1  UNL1        0.0735
     33 H           8.6550    4.0318    0.0000 H       1  UNL1        0.0391
     34 H           7.8080    4.2587    0.0000 H       1  UNL1        0.0391
     35 H           7.5811    3.4118    0.0000 H       1  UNL1        0.0391
     36 H           4.4101   -1.2802    0.0000 H       1  UNL1        0.0713
     37 H           4.9267   -2.6635    0.0000 H       1  UNL1        0.0344
     38 H           5.4391   -2.0529    0.0000 H       1  UNL1        0.0344
     39 H           4.3343    0.1853    0.0000 H       1  UNL1        0.2105
     40 H           3.2210   -1.1416    0.0000 H       1  UNL1        0.0620
     41 H           4.1807   -3.7783    0.0000 H       1  UNL1        0.0620
     42 H           1.6987   -1.6956    0.0000 H       1  UNL1        0.0618
     43 H           2.6584   -4.3324    0.0000 H       1  UNL1        0.0618
     44 H           1.4174   -3.2910    0.0000 H       1  UNL1        0.0618
@<TRIPOS>BOND
     1     1    11    1
     2     1    13    1
     3     2    13    2
     4    14     3    1
     5     3    39    1
     6     4     5    1
     7     4     6    1
     8     4    12    1
     9     5     7    1
    10     5     9    1
    11     5    22    1
    12     6     8    1
    13     6    10    1
    14     6    23    1
    15     7     8    1
    16     7    24    1
    17     7    25    1
    18     8    26    1
    19     8    27    1
    20     9    11    1
    21     9    28    1
    22     9    29    1
    23    10    11    1
    24    10    30    1
    25    10    31    1
    26    11    32    1
    27    12    33    1
    28    12    34    1
    29    12    35    1
    30    13    14    1
    31    14    15    1
    32    14    36    1
    33    15    16    1
    34    15    37    1
    35    15    38    1
    36    16    17   ar
    37    16    18   ar
    38    17    19   ar
    39    17    40    1
    40    18    20   ar
    41    18    41    1
    42    19    21   ar
    43    19    42    1
    44    20    21   ar
    45    20    43    1
    46    21    44    1
