@<TRIPOS>MOLECULE
IMPHY017007
 22 23 0 0 0
SMALL
GASTEIGER

@<TRIPOS>ATOM
      1 O           3.8366    2.1433    0.0000 O.2     1  UNL1       -0.4675
      2 C           2.8660    0.6488    0.0000 C.3     1  UNL1        0.0307
      3 C           2.8660   -0.3512    0.0000 C.ar    1  UNL1       -0.0401
      4 C           3.7320    1.1488    0.0000 C.ar    1  UNL1        0.1091
      5 C           3.7320   -0.8512    0.0000 C.ar    1  UNL1       -0.0582
      6 C           2.0000   -0.8512    0.0000 C.ar    1  UNL1       -0.0582
      7 C           4.6456    0.7420    0.0000 C.ar    1  UNL1       -0.0204
      8 C           3.7320   -1.8512    0.0000 C.ar    1  UNL1       -0.0615
      9 C           2.0000   -1.8512    0.0000 C.ar    1  UNL1       -0.0615
     10 C           5.3147    1.4852    0.0000 C.ar    1  UNL1       -0.0236
     11 C           2.8660   -2.3512    0.0000 C.ar    1  UNL1       -0.0617
     12 C           4.8147    2.3512    0.0000 C.ar    1  UNL1        0.0921
     13 H           2.6540    1.2314    0.0000 H       1  UNL1        0.0392
     14 H           2.2554    0.5411    0.0000 H       1  UNL1        0.0392
     15 H           4.2690   -0.5412    0.0000 H       1  UNL1        0.0620
     16 H           1.4631   -0.5412    0.0000 H       1  UNL1        0.0620
     17 H           4.7745    0.1356    0.0000 H       1  UNL1        0.0652
     18 H           4.2690   -2.1612    0.0000 H       1  UNL1        0.0618
     19 H           1.4631   -2.1612    0.0000 H       1  UNL1        0.0618
     20 H           5.9313    1.4204    0.0000 H       1  UNL1        0.0649
     21 H           2.8660   -2.9712    0.0000 H       1  UNL1        0.0618
     22 H           5.0669    2.9176    0.0000 H       1  UNL1        0.1029
@<TRIPOS>BOND
     1     1     4   ar
     2     1    12   ar
     3     2     3    1
     4     2     4    1
     5     2    13    1
     6     2    14    1
     7     3     5   ar
     8     3     6   ar
     9     4     7   ar
    10     5     8   ar
    11     5    15    1
    12     6     9   ar
    13     6    16    1
    14     7    10   ar
    15     7    17    1
    16     8    11   ar
    17     8    18    1
    18     9    11   ar
    19     9    19    1
    20    10    12   ar
    21    10    20    1
    22    11    21    1
    23    12    22    1
