@<TRIPOS>MOLECULE
IMPHY002498
 143 150 0 0 0
SMALL
GASTEIGER

@<TRIPOS>ATOM
      1 O           5.1247    1.1055    0.0000 O.3     1  UNL1       -0.3912
      2 O           6.8671   -2.9673    0.0000 O.3     1  UNL1       -0.3449
      3 O           8.6575    5.1364    0.0000 O.3     1  UNL1       -0.3451
      4 O           5.1350   -2.9673    0.0000 O.3     1  UNL1       -0.3405
      5 O          10.1474    4.2531    0.0000 O.3     1  UNL1       -0.3461
      6 O           6.8671   -4.9673    0.0000 O.3     1  UNL1       -0.3378
      7 O           9.6775    6.8568    0.0000 O.3     1  UNL1       -0.3841
      8 O           5.1350   -5.9673    0.0000 O.3     1  UNL1       -0.3864
      9 O          11.6773    6.8337    0.0000 O.3     1  UNL1       -0.3864
     10 O           7.4222    7.7734    0.0000 O.2     1  UNL1       -0.2971
     11 O           3.4030   -4.9673    0.0000 O.3     1  UNL1       -0.3865
     12 O          12.6572    5.0902    0.0000 O.3     1  UNL1       -0.3869
     13 O           2.5369   -3.4673    0.0000 O.3     1  UNL1       -0.3924
     14 O           6.0010   -6.4673    0.0000 O.3     1  UNL1       -0.3405
     15 O           8.5991   -5.9673    0.0000 O.3     1  UNL1       -0.3841
     16 O           8.5991   -7.9673    0.0000 O.3     1  UNL1       -0.3864
     17 O           6.8671   -8.9673    0.0000 O.3     1  UNL1       -0.3865
     18 O           5.1350   -8.9673    0.0000 O.3     1  UNL1       -0.3924
     19 C           6.8948    1.1018    0.0000 C.3     1  UNL1        0.0065
     20 C           6.8910    0.1018    0.0000 C.3     1  UNL1       -0.0169
     21 C           6.0264    0.6052    0.0000 C.3     1  UNL1       -0.0377
     22 C           7.7628    1.5985    0.0000 C.3     1  UNL1       -0.0265
     23 C           7.7551   -0.4015    0.0000 C.3     1  UNL1       -0.0272
     24 C           7.7829    2.6399    0.0000 C.3     1  UNL1       -0.0205
     25 C           5.9868    1.6122    0.0000 C.3     1  UNL1        0.0622
     26 C           6.8869    3.1711    0.0000 C.3     1  UNL1       -0.0186
     27 C           5.9790   -0.4015    0.0000 C.3     1  UNL1       -0.0441
     28 C           8.6269    1.0952    0.0000 C.3     1  UNL1       -0.0488
     29 C           5.9828    2.6538    0.0000 C.3     1  UNL1       -0.0200
     30 C           8.6230    0.0952    0.0000 C.3     1  UNL1       -0.0488
     31 C           7.7671   -1.4430    0.0000 C.3     1  UNL1       -0.0052
     32 C           7.1165    4.1808    0.0000 C.3     1  UNL1       -0.0060
     33 C           8.5586    3.3259    0.0000 C.3     1  UNL1       -0.0200
     34 C           5.9670   -1.4430    0.0000 C.3     1  UNL1       -0.0255
     35 C           6.8671   -1.9673    0.0000 C.3     1  UNL1        0.0672
     36 C           8.1475    4.2763    0.0000 C.3     1  UNL1        0.0659
     37 C           8.6430    2.1300    0.0000 C.3     1  UNL1       -0.0587
     38 C           6.0267    3.6811    0.0000 C.3     1  UNL1       -0.0586
     39 C           6.4573    4.9328    0.0000 C.3     1  UNL1       -0.0378
     40 C           8.7671   -1.4353    0.0000 C.3     1  UNL1       -0.0572
     41 C           8.2738   -2.3052    0.0000 C.3     1  UNL1       -0.0572
     42 C           6.7789    5.8797    0.0000 C.3     1  UNL1       -0.0434
     43 C           5.4765    4.7379    0.0000 C.3     1  UNL1       -0.0621
     44 C           6.0010   -3.4673    0.0000 C.3     1  UNL1        0.1886
     45 C           9.6574    5.1249    0.0000 C.3     1  UNL1        0.1878
     46 C           6.1197    6.6316    0.0000 C.3     1  UNL1        0.0063
     47 C           6.0010   -4.4673    0.0000 C.3     1  UNL1        0.1406
     48 C          10.1674    5.9851    0.0000 C.3     1  UNL1        0.1341
     49 C           6.4414    7.5785    0.0000 C.2     1  UNL1        0.1359
     50 C           5.1350   -4.9673    0.0000 C.3     1  UNL1        0.1144
     51 C          11.1674    5.9735    0.0000 C.3     1  UNL1        0.1137
     52 C           4.2690   -3.4673    0.0000 C.3     1  UNL1        0.1130
     53 C          11.1473    4.2416    0.0000 C.3     1  UNL1        0.0792
     54 C           4.2690   -4.4673    0.0000 C.3     1  UNL1        0.1119
     55 C          11.6573    5.1018    0.0000 C.3     1  UNL1        0.1069
     56 C           5.7822    8.3305    0.0000 C.3     1  UNL1        0.0119
     57 C           3.4030   -2.9673    0.0000 C.3     1  UNL1        0.0730
     58 C           6.8671   -5.9673    0.0000 C.3     1  UNL1        0.1885
     59 C           6.1038    9.2773    0.0000 C.3     1  UNL1       -0.0560
     60 C           4.8013    8.1356    0.0000 C.3     1  UNL1       -0.0560
     61 C           7.7331   -6.4673    0.0000 C.3     1  UNL1        0.1341
     62 C           7.7331   -7.4673    0.0000 C.3     1  UNL1        0.1141
     63 C           6.0010   -7.4673    0.0000 C.3     1  UNL1        0.1130
     64 C           6.8671   -7.9673    0.0000 C.3     1  UNL1        0.1119
     65 C           5.1350   -7.9673    0.0000 C.3     1  UNL1        0.0730
     66 H           5.6297    1.0817    0.0000 H       1  UNL1        0.0277
     67 H           5.6261    0.1317    0.0000 H       1  UNL1        0.0277
     68 H           8.5038    2.0149    0.0000 H       1  UNL1        0.0313
     69 H           8.4928   -0.8237    0.0000 H       1  UNL1        0.0312
     70 H           5.4481    1.9191    0.0000 H       1  UNL1        0.0599
     71 H           5.7768    0.1846    0.0000 H       1  UNL1        0.0272
     72 H           5.3670   -0.5005    0.0000 H       1  UNL1        0.0272
     73 H           9.2370    0.9851    0.0000 H       1  UNL1        0.0268
     74 H           8.8412    1.6769    0.0000 H       1  UNL1        0.0268
     75 H           5.7715    3.2367    0.0000 H       1  UNL1        0.0296
     76 H           5.3724    2.5454    0.0000 H       1  UNL1        0.0296
     77 H           8.8328   -0.4883    0.0000 H       1  UNL1        0.0268
     78 H           9.2340    0.2005    0.0000 H       1  UNL1        0.0268
     79 H           7.4313    4.9704    0.0000 H       1  UNL1        0.0334
     80 H           8.9182    2.8208    0.0000 H       1  UNL1        0.0296
     81 H           9.0986    3.6304    0.0000 H       1  UNL1        0.0296
     82 H           5.3574   -1.3299    0.0000 H       1  UNL1        0.0290
     83 H           5.7512   -2.0243    0.0000 H       1  UNL1        0.0290
     84 H           7.4046   -2.2763    0.0000 H       1  UNL1        0.0602
     85 H           8.7663    4.2369    0.0000 H       1  UNL1        0.0600
     86 H           8.3269    1.5966    0.0000 H       1  UNL1        0.0235
     87 H           9.1764    1.8138    0.0000 H       1  UNL1        0.0235
     88 H           8.9592    2.6633    0.0000 H       1  UNL1        0.0235
     89 H           6.3429    4.2144    0.0000 H       1  UNL1        0.0235
     90 H           5.4934    3.9973    0.0000 H       1  UNL1        0.0235
     91 H           5.7105    3.1478    0.0000 H       1  UNL1        0.0235
     92 H           6.2579    4.3458    0.0000 H       1  UNL1        0.0302
     93 H           4.5854    1.4114    0.0000 H       1  UNL1        0.2098
     94 H           8.7719   -2.0553    0.0000 H       1  UNL1        0.0236
     95 H           9.3871   -1.4306    0.0000 H       1  UNL1        0.0236
     96 H           8.7623   -0.8154    0.0000 H       1  UNL1        0.0236
     97 H           7.7393   -2.6193    0.0000 H       1  UNL1        0.0236
     98 H           8.5879   -2.8397    0.0000 H       1  UNL1        0.0236
     99 H           8.8083   -1.9911    0.0000 H       1  UNL1        0.0236
    100 H           7.3224    5.5813    0.0000 H       1  UNL1        0.0272
    101 H           7.1671    6.3631    0.0000 H       1  UNL1        0.0272
    102 H           5.3556    5.3460    0.0000 H       1  UNL1        0.0233
    103 H           4.8683    4.6171    0.0000 H       1  UNL1        0.0233
    104 H           5.5973    4.1298    0.0000 H       1  UNL1        0.0233
    105 H           6.0010   -2.8473    0.0000 H       1  UNL1        0.0938
    106 H           9.3413    4.5916    0.0000 H       1  UNL1        0.0937
    107 H           5.5762    6.9300    0.0000 H       1  UNL1        0.0342
    108 H           5.7316    6.1482    0.0000 H       1  UNL1        0.0342
    109 H           6.0010   -5.0873    0.0000 H       1  UNL1        0.0675
    110 H           9.5475    5.9922    0.0000 H       1  UNL1        0.0671
    111 H           4.5981   -5.2773    0.0000 H       1  UNL1        0.0648
    112 H          10.8636    6.5140    0.0000 H       1  UNL1        0.0647
    113 H           4.2690   -2.8473    0.0000 H       1  UNL1        0.0647
    114 H          11.0326    3.6323    0.0000 H       1  UNL1        0.0587
    115 H          11.7274    4.0228    0.0000 H       1  UNL1        0.0587
    116 H           3.7320   -4.1573    0.0000 H       1  UNL1        0.0647
    117 H          11.9611    4.5613    0.0000 H       1  UNL1        0.0643
    118 H           9.9937    7.3901    0.0000 H       1  UNL1        0.2101
    119 H           5.5828    7.7434    0.0000 H       1  UNL1        0.0372
    120 H           3.8015   -2.4924    0.0000 H       1  UNL1        0.0584
    121 H           3.0044   -2.4924    0.0000 H       1  UNL1        0.0584
    122 H           4.5981   -6.2773    0.0000 H       1  UNL1        0.2100
    123 H           7.4040   -5.6573    0.0000 H       1  UNL1        0.0938
    124 H          12.2973    6.8265    0.0000 H       1  UNL1        0.2100
    125 H           3.4030   -5.5873    0.0000 H       1  UNL1        0.2100
    126 H           4.6805    8.7437    0.0000 H       1  UNL1        0.0236
    127 H           4.1932    8.0148    0.0000 H       1  UNL1        0.0236
    128 H           6.6908    9.0779    0.0000 H       1  UNL1        0.0236
    129 H           4.9222    7.5275    0.0000 H       1  UNL1        0.0236
    130 H           6.3032    9.8644    0.0000 H       1  UNL1        0.0236
    131 H           5.5167    9.4768    0.0000 H       1  UNL1        0.0236
    132 H          12.9610    4.5497    0.0000 H       1  UNL1        0.2100
    133 H           8.2700   -6.7773    0.0000 H       1  UNL1        0.0671
    134 H           2.0000   -3.1573    0.0000 H       1  UNL1        0.2095
    135 H           7.7331   -8.0873    0.0000 H       1  UNL1        0.0648
    136 H           5.4641   -7.1573    0.0000 H       1  UNL1        0.0647
    137 H           6.3301   -8.2773    0.0000 H       1  UNL1        0.0647
    138 H           8.5991   -5.3473    0.0000 H       1  UNL1        0.2101
    139 H           4.9230   -7.3847    0.0000 H       1  UNL1        0.0584
    140 H           4.5244   -8.0750    0.0000 H       1  UNL1        0.0584
    141 H           9.1360   -7.6573    0.0000 H       1  UNL1        0.2100
    142 H           7.4040   -9.2773    0.0000 H       1  UNL1        0.2100
    143 H           5.6720   -9.2773    0.0000 H       1  UNL1        0.2095
@<TRIPOS>BOND
     1    25     1    1
     2     1    93    1
     3    35     2    1
     4    44     2    1
     5    36     3    1
     6    45     3    1
     7     4    44    1
     8     4    52    1
     9     5    45    1
    10     5    53    1
    11    47     6    1
    12    58     6    1
    13    48     7    1
    14     7   118    1
    15    50     8    1
    16     8   122    1
    17    51     9    1
    18     9   124    1
    19    10    49    2
    20    54    11    1
    21    11   125    1
    22    55    12    1
    23    12   132    1
    24    13    57    1
    25    13   134    1
    26    14    58    1
    27    14    63    1
    28    61    15    1
    29    15   138    1
    30    62    16    1
    31    16   141    1
    32    64    17    1
    33    17   142    1
    34    18    65    1
    35    18   143    1
    36    19    20    1
    37    19    21    1
    38    19    22    1
    39    19    25    1
    40    20    21    1
    41    20    23    1
    42    20    27    1
    43    21    66    1
    44    21    67    1
    45    22    24    1
    46    22    28    1
    47    22    68    1
    48    23    30    1
    49    23    31    1
    50    23    69    1
    51    24    26    1
    52    24    33    1
    53    24    37    1
    54    25    29    1
    55    25    70    1
    56    26    29    1
    57    26    32    1
    58    26    38    1
    59    27    34    1
    60    27    71    1
    61    27    72    1
    62    28    30    1
    63    28    73    1
    64    28    74    1
    65    29    75    1
    66    29    76    1
    67    30    77    1
    68    30    78    1
    69    31    35    1
    70    31    40    1
    71    31    41    1
    72    32    36    1
    73    32    39    1
    74    32    79    1
    75    33    36    1
    76    33    80    1
    77    33    81    1
    78    34    35    1
    79    34    82    1
    80    34    83    1
    81    35    84    1
    82    36    85    1
    83    37    86    1
    84    37    87    1
    85    37    88    1
    86    38    89    1
    87    38    90    1
    88    38    91    1
    89    39    42    1
    90    39    43    1
    91    39    92    1
    92    40    94    1
    93    40    95    1
    94    40    96    1
    95    41    97    1
    96    41    98    1
    97    41    99    1
    98    42    46    1
    99    42   100    1
   100    42   101    1
   101    43   102    1
   102    43   103    1
   103    43   104    1
   104    44    47    1
   105    44   105    1
   106    45    48    1
   107    45   106    1
   108    46    49    1
   109    46   107    1
   110    46   108    1
   111    47    50    1
   112    47   109    1
   113    48    51    1
   114    48   110    1
   115    49    56    1
   116    50    54    1
   117    50   111    1
   118    51    55    1
   119    51   112    1
   120    52    54    1
   121    52    57    1
   122    52   113    1
   123    53    55    1
   124    53   114    1
   125    53   115    1
   126    54   116    1
   127    55   117    1
   128    56    59    1
   129    56    60    1
   130    56   119    1
   131    57   120    1
   132    57   121    1
   133    58    61    1
   134    58   123    1
   135    59   128    1
   136    59   130    1
   137    59   131    1
   138    60   126    1
   139    60   127    1
   140    60   129    1
   141    61    62    1
   142    61   133    1
   143    62    64    1
   144    62   135    1
   145    63    64    1
   146    63    65    1
   147    63   136    1
   148    64   137    1
   149    65   139    1
   150    65   140    1
