@<TRIPOS>MOLECULE
IMPHY007631
 46 49 0 0 0
SMALL
GASTEIGER

@<TRIPOS>ATOM
      1 O           4.0543   -0.7427    0.0000 O.3     1  UNL1       -0.4911
      2 O           2.6720    0.7689    0.0000 O.3     1  UNL1       -0.4914
      3 O           6.1767   -3.1437    0.0000 O.2     1  UNL1       -0.2927
      4 N           7.0573    2.3280    0.0000 N.3     1  UNL1       -0.2981
      5 C           6.1767   -0.1437    0.0000 C.3     1  UNL1        0.0201
      6 C           6.6767    1.3952    0.0000 C.3     1  UNL1        0.0371
      7 C           6.9857    0.4441    0.0000 C.3     1  UNL1       -0.0199
      8 C           5.6767    1.3952    0.0000 C.ar    1  UNL1       -0.0193
      9 C           5.3677    0.4441    0.0000 C.ar    1  UNL1        0.0128
     10 C           7.0427   -0.6437    0.0000 C.3     1  UNL1       -0.0327
     11 C           4.9917    2.1799    0.0000 C.ar    1  UNL1       -0.0375
     12 C           5.3107   -0.6437    0.0000 C.2     1  UNL1       -0.0701
     13 C           6.4658    3.1437    0.0000 C.3     1  UNL1        0.0032
     14 C           5.4608    3.0716    0.0000 C.3     1  UNL1       -0.0144
     15 C           4.3523    0.2119    0.0000 C.ar    1  UNL1        0.1658
     16 C           7.0427   -1.6437    0.0000 C.3     1  UNL1        0.0109
     17 C           3.9712    1.9712    0.0000 C.ar    1  UNL1       -0.0128
     18 C           3.6493    0.9805    0.0000 C.ar    1  UNL1        0.1621
     19 C           8.0502    2.4478    0.0000 C.3     1  UNL1       -0.0122
     20 C           5.3107   -1.6437    0.0000 C.2     1  UNL1       -0.0223
     21 C           6.1767   -2.1437    0.0000 C.2     1  UNL1        0.1559
     22 C           3.0786   -0.9619    0.0000 C.3     1  UNL1        0.0790
     23 C           2.0000    1.5094    0.0000 C.3     1  UNL1        0.0790
     24 H           7.5261    1.3640    0.0000 H       1  UNL1        0.0513
     25 H           7.2957   -0.0928    0.0000 H       1  UNL1        0.0295
     26 H           7.5521    0.6963    0.0000 H       1  UNL1        0.0295
     27 H           7.6533   -0.7513    0.0000 H       1  UNL1        0.0281
     28 H           7.2548   -0.0611    0.0000 H       1  UNL1        0.0281
     29 H           4.7737   -0.3337    0.0000 H       1  UNL1        0.0582
     30 H           7.0262    3.4090    0.0000 H       1  UNL1        0.0430
     31 H           6.3083    3.7433    0.0000 H       1  UNL1        0.0430
     32 H           5.5312    3.6876    0.0000 H       1  UNL1        0.0326
     33 H           4.8683    3.2542    0.0000 H       1  UNL1        0.0326
     34 H           7.2548   -2.2263    0.0000 H       1  UNL1        0.0345
     35 H           7.6533   -1.5360    0.0000 H       1  UNL1        0.0345
     36 H           3.5581    2.4335    0.0000 H       1  UNL1        0.0658
     37 H           8.1244    1.8323    0.0000 H       1  UNL1        0.0391
     38 H           8.6657    2.5220    0.0000 H       1  UNL1        0.0391
     39 H           7.9759    3.0633    0.0000 H       1  UNL1        0.0391
     40 H           4.7737   -1.9537    0.0000 H       1  UNL1        0.0649
     41 H           2.9427   -0.3570    0.0000 H       1  UNL1        0.0660
     42 H           2.4737   -1.0978    0.0000 H       1  UNL1        0.0660
     43 H           3.2145   -1.5668    0.0000 H       1  UNL1        0.0660
     44 H           2.4592    1.9261    0.0000 H       1  UNL1        0.0660
     45 H           1.5834    1.9686    0.0000 H       1  UNL1        0.0660
     46 H           1.5408    1.0928    0.0000 H       1  UNL1        0.0660
@<TRIPOS>BOND
     1     1    15    1
     2     1    22    1
     3     2    18    1
     4     2    23    1
     5     3    21    2
     6     4     6    1
     7     4    13    1
     8     4    19    1
     9     5     7    1
    10     5     9    1
    11     5    10    1
    12     5    12    1
    13     6     7    1
    14     6     8    1
    15     6    24    1
    16     7    25    1
    17     7    26    1
    18     8     9   ar
    19     8    11   ar
    20     9    15   ar
    21    10    16    1
    22    10    27    1
    23    10    28    1
    24    11    14    1
    25    11    17   ar
    26    12    20    2
    27    12    29    1
    28    13    14    1
    29    13    30    1
    30    13    31    1
    31    14    32    1
    32    14    33    1
    33    15    18   ar
    34    16    21    1
    35    16    34    1
    36    16    35    1
    37    17    18   ar
    38    17    36    1
    39    19    37    1
    40    19    38    1
    41    19    39    1
    42    20    21    1
    43    20    40    1
    44    22    41    1
    45    22    42    1
    46    22    43    1
    47    23    44    1
    48    23    45    1
    49    23    46    1
