@<TRIPOS>MOLECULE
IMPHY002866
 39 40 0 0 0
SMALL
GASTEIGER

@<TRIPOS>ATOM
      1 C           4.0000   -0.1751    0.0000 C.3     1  UNL1       -0.0054
      2 C           4.5878    0.6339    0.0000 C.3     1  UNL1       -0.0369
      3 C           3.5000   -1.0412    0.0000 C.3     1  UNL1       -0.0342
      4 C           4.5878   -0.9841    0.0000 C.3     1  UNL1       -0.0429
      5 C           5.5388    0.3249    0.0000 C.3     1  UNL1       -0.0196
      6 C           5.5388   -0.6751    0.0000 C.3     1  UNL1       -0.0457
      7 C           3.5000    0.6909    0.0000 C.2     1  UNL1       -0.0701
      8 C           2.5000   -1.0412    0.0000 C.3     1  UNL1       -0.0462
      9 C           2.0000   -0.1751    0.0000 C.3     1  UNL1       -0.0342
     10 C           4.0000   -1.9072    0.0000 C.3     1  UNL1       -0.0616
     11 C           2.5000    0.6909    0.0000 C.2     1  UNL1       -0.0845
     12 C           6.3479    0.9127    0.0000 C.2     1  UNL1       -0.0766
     13 C           4.0000    1.5569    0.0000 C.3     1  UNL1       -0.0433
     14 C           7.2614    0.5059    0.0000 C.3     1  UNL1       -0.0438
     15 C           6.2433    1.9072    0.0000 C.2     1  UNL1       -0.0994
     16 H           4.8400    1.2003    0.0000 H       1  UNL1        0.0279
     17 H           4.0508    0.9439    0.0000 H       1  UNL1        0.0279
     18 H           4.1200   -1.0412    0.0000 H       1  UNL1        0.0307
     19 H           4.0508   -1.2942    0.0000 H       1  UNL1        0.0274
     20 H           4.8400   -1.5505    0.0000 H       1  UNL1        0.0274
     21 H           5.4418    0.9372    0.0000 H       1  UNL1        0.0346
     22 H           5.6678   -1.2816    0.0000 H       1  UNL1        0.0271
     23 H           6.1554   -0.6103    0.0000 H       1  UNL1        0.0271
     24 H           1.9174   -1.2532    0.0000 H       1  UNL1        0.0271
     25 H           2.6077   -1.6517    0.0000 H       1  UNL1        0.0271
     26 H           1.5250    0.2234    0.0000 H       1  UNL1        0.0307
     27 H           1.5250   -0.5737    0.0000 H       1  UNL1        0.0307
     28 H           3.4631   -2.2172    0.0000 H       1  UNL1        0.0233
     29 H           4.3100   -2.4441    0.0000 H       1  UNL1        0.0233
     30 H           4.5369   -1.5972    0.0000 H       1  UNL1        0.0233
     31 H           2.1900    1.2278    0.0000 H       1  UNL1        0.0572
     32 H           4.5369    1.2469    0.0000 H       1  UNL1        0.0275
     33 H           4.3100    2.0939    0.0000 H       1  UNL1        0.0275
     34 H           3.4631    1.8669    0.0000 H       1  UNL1        0.0275
     35 H           7.0092   -0.0605    0.0000 H       1  UNL1        0.0274
     36 H           7.8278    0.2537    0.0000 H       1  UNL1        0.0274
     37 H           7.5136    1.0723    0.0000 H       1  UNL1        0.0274
     38 H           6.7449    2.2716    0.0000 H       1  UNL1        0.0534
     39 H           5.6769    2.1594    0.0000 H       1  UNL1        0.0534
@<TRIPOS>BOND
     1     1     2    1
     2     1     3    1
     3     1     4    1
     4     1     7    1
     5     2     5    1
     6     2    16    1
     7     2    17    1
     8     3     8    1
     9     3    10    1
    10     3    18    1
    11     4     6    1
    12     4    19    1
    13     4    20    1
    14     5     6    1
    15     5    12    1
    16     5    21    1
    17     6    22    1
    18     6    23    1
    19     7    11    2
    20     7    13    1
    21     8     9    1
    22     8    24    1
    23     8    25    1
    24     9    11    1
    25     9    26    1
    26     9    27    1
    27    10    28    1
    28    10    29    1
    29    10    30    1
    30    11    31    1
    31    12    14    1
    32    12    15    2
    33    13    32    1
    34    13    33    1
    35    13    34    1
    36    14    35    1
    37    14    36    1
    38    14    37    1
    39    15    38    1
    40    15    39    1
