@<TRIPOS>MOLECULE
IMPHY004060
 45 46 0 0 0
SMALL
GASTEIGER

@<TRIPOS>ATOM
      1 O           5.1808   -0.0146    0.0000 O.3     1  UNL1       -0.4581
      2 O           3.6857    0.1662    0.0000 O.3     1  UNL1       -0.3752
      3 O           2.6064    2.3033    0.0000 O.3     1  UNL1       -0.3886
      4 O           5.5409    1.6796    0.0000 O.2     1  UNL1       -0.2475
      5 N           7.4190   -2.4826    0.0000 N.3     1  UNL1       -0.2920
      6 C           7.4190   -1.4826    0.0000 C.3     1  UNL1        0.0352
      7 C           8.3652   -1.1779    0.0000 C.3     1  UNL1       -0.0322
      8 C           8.3652   -2.7873    0.0000 C.3     1  UNL1       -0.0002
      9 C           8.9488   -1.9826    0.0000 C.3     1  UNL1       -0.0385
     10 C           6.4680   -1.1736    0.0000 C.2     1  UNL1       -0.0183
     11 C           6.4680   -2.7916    0.0000 C.3     1  UNL1        0.0181
     12 C           5.8802   -1.9826    0.0000 C.2     1  UNL1       -0.0661
     13 C           6.1589   -0.2225    0.0000 C.3     1  UNL1        0.1152
     14 C           3.8936    1.1444    0.0000 C.3     1  UNL1        0.1901
     15 C           4.1015    2.1225    0.0000 C.3     1  UNL1       -0.0048
     16 C           2.9155    1.3523    0.0000 C.3     1  UNL1        0.0918
     17 C           4.8718    0.9364    0.0000 C.2     1  UNL1        0.3423
     18 C           3.3584    2.7916    0.0000 C.3     1  UNL1       -0.0594
     19 C           5.0526    2.4315    0.0000 C.3     1  UNL1       -0.0594
     20 C           2.2463    0.6091    0.0000 C.3     1  UNL1       -0.0357
     21 H           7.4201   -0.6326    0.0000 H       1  UNL1        0.0510
     22 H           8.9026   -0.8686    0.0000 H       1  UNL1        0.0284
     23 H           8.1142   -0.6110    0.0000 H       1  UNL1        0.0284
     24 H           8.1142   -3.3542    0.0000 H       1  UNL1        0.0427
     25 H           8.9026   -3.0966    0.0000 H       1  UNL1        0.0427
     26 H           9.4097   -2.3973    0.0000 H       1  UNL1        0.0278
     27 H           9.4097   -1.5679    0.0000 H       1  UNL1        0.0278
     28 H           5.9310   -3.1016    0.0000 H       1  UNL1        0.0470
     29 H           6.7201   -3.3580    0.0000 H       1  UNL1        0.0470
     30 H           5.2602   -1.9826    0.0000 H       1  UNL1        0.0586
     31 H           6.7729   -0.1362    0.0000 H       1  UNL1        0.0746
     32 H           6.1806    0.3971    0.0000 H       1  UNL1        0.0746
     33 H           3.5119    1.9309    0.0000 H       1  UNL1        0.0329
     34 H           2.3090    1.4812    0.0000 H       1  UNL1        0.0625
     35 H           3.7732    3.2524    0.0000 H       1  UNL1        0.0233
     36 H           2.8976    3.2065    0.0000 H       1  UNL1        0.0233
     37 H           2.9435    2.3309    0.0000 H       1  UNL1        0.0233
     38 H           5.2442    1.8419    0.0000 H       1  UNL1        0.0233
     39 H           5.6422    2.6231    0.0000 H       1  UNL1        0.0233
     40 H           4.8610    3.0212    0.0000 H       1  UNL1        0.0233
     41 H           1.7856    1.0240    0.0000 H       1  UNL1        0.0255
     42 H           1.8315    0.1484    0.0000 H       1  UNL1        0.0255
     43 H           2.7071    0.1943    0.0000 H       1  UNL1        0.0255
     44 H           3.0960   -0.0254    0.0000 H       1  UNL1        0.2110
     45 H           2.0000    2.4322    0.0000 H       1  UNL1        0.2099
@<TRIPOS>BOND
     1     1    13    1
     2     1    17    1
     3    14     2    1
     4     2    44    1
     5    16     3    1
     6     3    45    1
     7     4    17    2
     8     5     6    1
     9     5     8    1
    10     5    11    1
    11     6     7    1
    12     6    10    1
    13     6    21    1
    14     7     9    1
    15     7    22    1
    16     7    23    1
    17     8     9    1
    18     8    24    1
    19     8    25    1
    20     9    26    1
    21     9    27    1
    22    10    12    2
    23    10    13    1
    24    11    12    1
    25    11    28    1
    26    11    29    1
    27    12    30    1
    28    13    31    1
    29    13    32    1
    30    14    15    1
    31    14    16    1
    32    14    17    1
    33    15    18    1
    34    15    19    1
    35    15    33    1
    36    16    20    1
    37    16    34    1
    38    18    35    1
    39    18    36    1
    40    18    37    1
    41    19    38    1
    42    19    39    1
    43    19    40    1
    44    20    41    1
    45    20    42    1
    46    20    43    1
