@<TRIPOS>MOLECULE
IMPHY016971
 49 51 0 0 0
SMALL
GASTEIGER

@<TRIPOS>ATOM
      1 O           5.5442    2.5839    0.0000 O.3     1  UNL1       -0.5065
      2 C           3.8000   -0.4854    0.0000 C.3     1  UNL1        0.0004
      3 C           3.8000   -1.4854    0.0000 C.3     1  UNL1       -0.0080
      4 C           2.9061   -2.0200    0.0000 C.3     1  UNL1       -0.0278
      5 C           2.9061    0.0493    0.0000 C.3     1  UNL1       -0.0430
      6 C           2.0000   -1.5062    0.0000 C.3     1  UNL1       -0.0473
      7 C           2.0000   -0.4646    0.0000 C.3     1  UNL1       -0.0517
      8 C           4.6660    0.0146    0.0000 C.ar    1  UNL1       -0.0303
      9 C           3.8000    0.5146    0.0000 C.3     1  UNL1       -0.0550
     10 C           4.6660   -1.9854    0.0000 C.2     1  UNL1       -0.0790
     11 C           2.4161   -2.8918    0.0000 C.3     1  UNL1       -0.0593
     12 C           3.4160   -2.8802    0.0000 C.3     1  UNL1       -0.0593
     13 C           5.5321   -0.4854    0.0000 C.ar    1  UNL1       -0.0211
     14 C           5.5321   -1.4854    0.0000 C.2     1  UNL1       -0.0579
     15 C           4.6500    1.0561    0.0000 C.ar    1  UNL1       -0.0156
     16 C           6.4421    0.0215    0.0000 C.ar    1  UNL1       -0.0474
     17 C           5.5480    1.5839    0.0000 C.ar    1  UNL1        0.1206
     18 C           6.4501    1.0631    0.0000 C.ar    1  UNL1       -0.0028
     19 C           7.3180    1.5597    0.0000 C.3     1  UNL1       -0.0181
     20 C           8.1821    1.0564    0.0000 C.3     1  UNL1       -0.0585
     21 C           7.3219    2.5597    0.0000 C.3     1  UNL1       -0.0585
     22 H           3.8066   -2.3354    0.0000 H       1  UNL1        0.0357
     23 H           3.3107    0.5191    0.0000 H       1  UNL1        0.0274
     24 H           2.5124    0.5283    0.0000 H       1  UNL1        0.0274
     25 H           1.3891   -1.4001    0.0000 H       1  UNL1        0.0271
     26 H           1.7909   -2.0899    0.0000 H       1  UNL1        0.0271
     27 H           1.7909    0.1191    0.0000 H       1  UNL1        0.0266
     28 H           1.3891   -0.5707    0.0000 H       1  UNL1        0.0266
     29 H           4.4200    0.5146    0.0000 H       1  UNL1        0.0238
     30 H           3.8000    1.1346    0.0000 H       1  UNL1        0.0238
     31 H           3.1800    0.5146    0.0000 H       1  UNL1        0.0238
     32 H           4.6660   -2.6054    0.0000 H       1  UNL1        0.0575
     33 H           1.8756   -2.5880    0.0000 H       1  UNL1        0.0235
     34 H           2.1123   -3.4323    0.0000 H       1  UNL1        0.0235
     35 H           2.9566   -3.1956    0.0000 H       1  UNL1        0.0235
     36 H           2.8827   -3.1964    0.0000 H       1  UNL1        0.0235
     37 H           3.7322   -3.4136    0.0000 H       1  UNL1        0.0235
     38 H           3.9494   -2.5640    0.0000 H       1  UNL1        0.0235
     39 H           6.0690   -1.7954    0.0000 H       1  UNL1        0.0621
     40 H           4.1095    1.3599    0.0000 H       1  UNL1        0.0657
     41 H           6.9754   -0.2947    0.0000 H       1  UNL1        0.0627
     42 H           7.3156    0.9397    0.0000 H       1  UNL1        0.0345
     43 H           5.0060    2.8918    0.0000 H       1  UNL1        0.2921
     44 H           7.8701    0.5206    0.0000 H       1  UNL1        0.0235
     45 H           8.7179    0.7443    0.0000 H       1  UNL1        0.0235
     46 H           8.4942    1.5921    0.0000 H       1  UNL1        0.0235
     47 H           7.9419    2.5573    0.0000 H       1  UNL1        0.0235
     48 H           7.3243    3.1797    0.0000 H       1  UNL1        0.0235
     49 H           6.7019    2.5621    0.0000 H       1  UNL1        0.0235
@<TRIPOS>BOND
     1     1    17    1
     2     1    43    1
     3     2     3    1
     4     2     5    1
     5     2     8    1
     6     2     9    1
     7     3     4    1
     8     3    10    1
     9     3    22    1
    10     4     6    1
    11     4    11    1
    12     4    12    1
    13     5     7    1
    14     5    23    1
    15     5    24    1
    16     6     7    1
    17     6    25    1
    18     6    26    1
    19     7    27    1
    20     7    28    1
    21     8    13   ar
    22     8    15   ar
    23     9    29    1
    24     9    30    1
    25     9    31    1
    26    10    14    2
    27    10    32    1
    28    11    33    1
    29    11    34    1
    30    11    35    1
    31    12    36    1
    32    12    37    1
    33    12    38    1
    34    13    14    1
    35    13    16   ar
    36    14    39    1
    37    15    17   ar
    38    15    40    1
    39    16    18   ar
    40    16    41    1
    41    17    18   ar
    42    18    19    1
    43    19    20    1
    44    19    21    1
    45    19    42    1
    46    20    44    1
    47    20    45    1
    48    20    46    1
    49    21    47    1
    50    21    48    1
    51    21    49    1
