@<TRIPOS>MOLECULE
IMPHY010358
 85 88 0 0 0
SMALL
GASTEIGER

@<TRIPOS>ATOM
      1 O           2.5357   -3.4173    0.0000 O.3     1  UNL1       -0.3912
      2 O          10.1362    0.5796    0.0000 O.3     1  UNL1       -0.3886
      3 O          10.1177    3.7418    0.0000 O.3     1  UNL1       -0.3875
      4 C           7.0628   -1.8650    0.0000 C.3     1  UNL1       -0.0231
      5 C           7.9288   -1.3650    0.0000 C.3     1  UNL1       -0.0232
      6 C           6.1968   -1.3650    0.0000 C.3     1  UNL1       -0.0294
      7 C           5.2868   -1.8719    0.0000 C.3     1  UNL1       -0.0252
      8 C           7.9288   -0.3650    0.0000 C.3     1  UNL1       -0.0297
      9 C           5.2787   -2.9135    0.0000 C.3     1  UNL1       -0.0278
     10 C           7.0789   -2.9065    0.0000 C.3     1  UNL1       -0.0466
     11 C           6.1968   -0.3650    0.0000 C.3     1  UNL1       -0.0489
     12 C           8.8750   -0.0603    0.0000 C.3     1  UNL1       -0.0090
     13 C           8.8750   -1.6697    0.0000 C.3     1  UNL1       -0.0465
     14 C           7.0628    0.1350    0.0000 C.3     1  UNL1       -0.0491
     15 C           6.1808   -3.4343    0.0000 C.3     1  UNL1       -0.0486
     16 C           4.3433   -3.4632    0.0000 C.3     1  UNL1       -0.0056
     17 C           9.4586   -0.8650    0.0000 C.3     1  UNL1       -0.0468
     18 C           4.3599   -1.3078    0.0000 C.3     1  UNL1       -0.0447
     19 C           7.7056   -2.6310    0.0000 C.3     1  UNL1       -0.0588
     20 C           8.2709   -2.3047    0.0000 C.3     1  UNL1       -0.0588
     21 C           5.2945   -0.8719    0.0000 C.3     1  UNL1       -0.0590
     22 C           3.4037   -2.9207    0.0000 C.3     1  UNL1        0.0606
     23 C           9.1857    0.8902    0.0000 C.3     1  UNL1        0.0665
     24 C           3.4120   -1.8357    0.0000 C.3     1  UNL1       -0.0258
     25 C           3.8467   -4.3311    0.0000 C.3     1  UNL1       -0.0572
     26 C           4.8466   -4.3273    0.0000 C.3     1  UNL1       -0.0572
     27 C           9.4964    1.8408    0.0000 C.3     1  UNL1       -0.0214
     28 C           8.2352    1.2009    0.0000 C.3     1  UNL1       -0.0358
     29 C          10.4749    2.0470    0.0000 C.3     1  UNL1       -0.0204
     30 C          10.7855    2.9975    0.0000 C.3     1  UNL1        0.0758
     31 C          11.7640    3.2037    0.0000 C.2     1  UNL1       -0.0516
     32 C          12.0747    4.1542    0.0000 C.3     1  UNL1       -0.0416
     33 C          12.4319    2.4594    0.0000 C.2     1  UNL1       -0.0973
     34 H           6.9329   -0.9400    0.0000 H       1  UNL1        0.0312
     35 H           8.0188    0.4802    0.0000 H       1  UNL1        0.0310
     36 H           5.2820   -3.7634    0.0000 H       1  UNL1        0.0312
     37 H           7.2969   -3.4869    0.0000 H       1  UNL1        0.0271
     38 H           7.6880   -2.7910    0.0000 H       1  UNL1        0.0271
     39 H           5.9847    0.2176    0.0000 H       1  UNL1        0.0268
     40 H           5.5862   -0.4727    0.0000 H       1  UNL1        0.0268
     41 H           9.7148    0.0716    0.0000 H       1  UNL1        0.0331
     42 H           8.6240   -2.2366    0.0000 H       1  UNL1        0.0271
     43 H           9.4124   -1.9790    0.0000 H       1  UNL1        0.0271
     44 H           7.4613    0.6099    0.0000 H       1  UNL1        0.0268
     45 H           6.6643    0.6099    0.0000 H       1  UNL1        0.0268
     46 H           5.7835   -3.9102    0.0000 H       1  UNL1        0.0268
     47 H           6.5818   -3.9072    0.0000 H       1  UNL1        0.0268
     48 H           9.9195   -1.2797    0.0000 H       1  UNL1        0.0269
     49 H           9.9195   -0.4503    0.0000 H       1  UNL1        0.0269
     50 H           4.7681   -0.8411    0.0000 H       1  UNL1        0.0271
     51 H           3.9700   -0.8257    0.0000 H       1  UNL1        0.0271
     52 H           7.2306   -3.0296    0.0000 H       1  UNL1        0.0235
     53 H           8.1041   -3.1060    0.0000 H       1  UNL1        0.0235
     54 H           8.1805   -2.2325    0.0000 H       1  UNL1        0.0235
     55 H           7.6884   -2.5168    0.0000 H       1  UNL1        0.0235
     56 H           8.4830   -2.8873    0.0000 H       1  UNL1        0.0235
     57 H           8.8535   -2.0926    0.0000 H       1  UNL1        0.0235
     58 H           5.9145   -0.8767    0.0000 H       1  UNL1        0.0235
     59 H           5.2993   -0.2519    0.0000 H       1  UNL1        0.0235
     60 H           4.6745   -0.8671    0.0000 H       1  UNL1        0.0235
     61 H           3.4025   -3.5407    0.0000 H       1  UNL1        0.0599
     62 H           3.2075   -1.2504    0.0000 H       1  UNL1        0.0290
     63 H           2.8004   -1.9371    0.0000 H       1  UNL1        0.0290
     64 H           4.3109   -4.6393    0.0000 H       1  UNL1        0.0236
     65 H           5.1587   -4.8630    0.0000 H       1  UNL1        0.0236
     66 H           3.3085   -4.0232    0.0000 H       1  UNL1        0.0236
     67 H           3.5387   -4.8692    0.0000 H       1  UNL1        0.0236
     68 H           4.3848   -4.6390    0.0000 H       1  UNL1        0.0236
     69 H           5.3824   -4.0152    0.0000 H       1  UNL1        0.0236
     70 H           9.4758    2.4604    0.0000 H       1  UNL1        0.0294
     71 H           8.8826    1.9281    0.0000 H       1  UNL1        0.0294
     72 H           8.4278    1.7902    0.0000 H       1  UNL1        0.0257
     73 H           7.6459    1.3935    0.0000 H       1  UNL1        0.0257
     74 H           8.0426    0.6116    0.0000 H       1  UNL1        0.0257
     75 H           2.0000   -3.1053    0.0000 H       1  UNL1        0.2098
     76 H          10.5977    0.9936    0.0000 H       1  UNL1        0.2102
     77 H          10.4954    1.4273    0.0000 H       1  UNL1        0.0294
     78 H          11.0887    1.9596    0.0000 H       1  UNL1        0.0294
     79 H          10.9781    3.5868    0.0000 H       1  UNL1        0.0640
     80 H          10.3103    4.3311    0.0000 H       1  UNL1        0.2102
     81 H          12.6640    3.9616    0.0000 H       1  UNL1        0.0275
     82 H          12.2673    4.7436    0.0000 H       1  UNL1        0.0275
     83 H          11.4854    4.3468    0.0000 H       1  UNL1        0.0275
     84 H          12.2393    1.8701    0.0000 H       1  UNL1        0.0535
     85 H          13.0386    2.5873    0.0000 H       1  UNL1        0.0535
@<TRIPOS>BOND
     1    22     1    1
     2     1    75    1
     3    23     2    1
     4     2    76    1
     5     3    30    1
     6     3    80    1
     7     4     5    1
     8     4     6    1
     9     4    10    1
    10     4    19    1
    11     5     8    1
    12     5    13    1
    13     5    20    1
    14     6     7    1
    15     6    11    1
    16     6    34    1
    17     7     9    1
    18     7    18    1
    19     7    21    1
    20     8    12    1
    21     8    14    1
    22     8    35    1
    23     9    15    1
    24     9    16    1
    25     9    36    1
    26    10    15    1
    27    10    37    1
    28    10    38    1
    29    11    14    1
    30    11    39    1
    31    11    40    1
    32    12    17    1
    33    12    23    1
    34    12    41    1
    35    13    17    1
    36    13    42    1
    37    13    43    1
    38    14    44    1
    39    14    45    1
    40    15    46    1
    41    15    47    1
    42    16    22    1
    43    16    25    1
    44    16    26    1
    45    17    48    1
    46    17    49    1
    47    18    24    1
    48    18    50    1
    49    18    51    1
    50    19    52    1
    51    19    53    1
    52    19    54    1
    53    20    55    1
    54    20    56    1
    55    20    57    1
    56    21    58    1
    57    21    59    1
    58    21    60    1
    59    22    24    1
    60    22    61    1
    61    23    27    1
    62    23    28    1
    63    24    62    1
    64    24    63    1
    65    25    66    1
    66    25    67    1
    67    25    68    1
    68    26    64    1
    69    26    65    1
    70    26    69    1
    71    27    29    1
    72    27    70    1
    73    27    71    1
    74    28    72    1
    75    28    73    1
    76    28    74    1
    77    29    30    1
    78    29    77    1
    79    29    78    1
    80    30    31    1
    81    30    79    1
    82    31    32    1
    83    31    33    2
    84    32    81    1
    85    32    82    1
    86    32    83    1
    87    33    84    1
    88    33    85    1
