@<TRIPOS>MOLECULE
IMPHY009349
 26 26 0 0 0
SMALL
GASTEIGER

@<TRIPOS>ATOM
      1 O           3.7320    2.1900    0.0000 O.3     1  UNL1       -0.4773
      2 O           2.0000    2.1900    0.0000 O.2     1  UNL1       -0.2455
      3 C           2.8660   -1.3100    0.0000 C.3     1  UNL1       -0.0167
      4 C           3.7320   -0.8100    0.0000 C.3     1  UNL1       -0.0420
      5 C           2.0000   -0.8100    0.0000 C.3     1  UNL1       -0.0275
      6 C           3.7320    0.1900    0.0000 C.3     1  UNL1       -0.0207
      7 C           2.8660    0.6900    0.0000 C.2     1  UNL1        0.0325
      8 C           2.8660   -2.3100    0.0000 C.2     1  UNL1       -0.0763
      9 C           2.0000    0.1900    0.0000 C.2     1  UNL1       -0.0735
     10 C           2.0000   -2.8100    0.0000 C.3     1  UNL1       -0.0438
     11 C           2.8660    1.6900    0.0000 C.2     1  UNL1        0.3325
     12 C           3.7320   -2.8100    0.0000 C.2     1  UNL1       -0.0994
     13 H           3.4030   -1.6200    0.0000 H       1  UNL1        0.0348
     14 H           3.9441   -1.3926    0.0000 H       1  UNL1        0.0274
     15 H           4.3426   -0.7023    0.0000 H       1  UNL1        0.0274
     16 H           1.3894   -0.7023    0.0000 H       1  UNL1        0.0313
     17 H           1.7880   -1.3926    0.0000 H       1  UNL1        0.0313
     18 H           4.3426    0.0823    0.0000 H       1  UNL1        0.0315
     19 H           3.9441    0.7726    0.0000 H       1  UNL1        0.0315
     20 H           1.4631    0.5000    0.0000 H       1  UNL1        0.0577
     21 H           1.6900   -2.2731    0.0000 H       1  UNL1        0.0274
     22 H           1.4631   -3.1200    0.0000 H       1  UNL1        0.0274
     23 H           2.3100   -3.3469    0.0000 H       1  UNL1        0.0274
     24 H           3.7320   -3.4300    0.0000 H       1  UNL1        0.0534
     25 H           4.2690   -2.5000    0.0000 H       1  UNL1        0.0534
     26 H           3.7320    2.8100    0.0000 H       1  UNL1        0.2954
@<TRIPOS>BOND
     1     1    11    1
     2     1    26    1
     3     2    11    2
     4     3     4    1
     5     3     5    1
     6     3     8    1
     7     3    13    1
     8     4     6    1
     9     4    14    1
    10     4    15    1
    11     5     9    1
    12     5    16    1
    13     5    17    1
    14     6     7    1
    15     6    18    1
    16     6    19    1
    17     7     9    2
    18     7    11    1
    19     8    10    1
    20     8    12    2
    21     9    20    1
    22    10    21    1
    23    10    22    1
    24    10    23    1
    25    12    24    1
    26    12    25    1
