@<TRIPOS>MOLECULE
IMPHY007864
 40 43 0 0 0
SMALL
GASTEIGER

@<TRIPOS>ATOM
      1 O           6.3580   -1.9851    0.0000 O.2     1  UNL1       -0.4618
      2 O          10.8076   -0.2207    0.0000 O.3     1  UNL1       -0.4526
      3 O          10.8014    1.3888    0.0000 O.3     1  UNL1       -0.4525
      4 O           7.2564    1.5704    0.0000 O.3     1  UNL1       -0.4944
      5 O           6.3465    1.0842    0.0000 O.2     1  UNL1       -0.2863
      6 O           2.8660    0.0496    0.0000 O.3     1  UNL1       -0.4885
      7 O           4.5981    1.0496    0.0000 O.3     1  UNL1       -0.5027
      8 O           2.8660   -1.9504    0.0000 O.3     1  UNL1       -0.5031
      9 C           8.1282    0.0738    0.0000 C.ar    1  UNL1        0.0341
     10 C           7.2641   -0.4296    0.0000 C.ar    1  UNL1        0.0680
     11 C           5.4641   -0.4504    0.0000 C.ar    1  UNL1        0.1097
     12 C           6.3580    0.0843    0.0000 C.ar    1  UNL1        0.2039
     13 C           8.1244    1.0738    0.0000 C.ar    1  UNL1        0.1317
     14 C           9.8602    0.0804    0.0000 C.ar    1  UNL1        0.1670
     15 C           8.9962   -0.4229    0.0000 C.ar    1  UNL1       -0.0047
     16 C           5.4641   -1.4504    0.0000 C.ar    1  UNL1        0.1456
     17 C           9.8564    1.0804    0.0000 C.ar    1  UNL1        0.1697
     18 C           8.9884    1.5771    0.0000 C.ar    1  UNL1        0.0262
     19 C           4.5981    0.0496    0.0000 C.ar    1  UNL1        0.1768
     20 C           7.2641   -1.4712    0.0000 C.ar    1  UNL1        0.1040
     21 C           4.5981   -1.9504    0.0000 C.ar    1  UNL1        0.0267
     22 C           3.7320   -0.4504    0.0000 C.ar    1  UNL1        0.2040
     23 C          11.3881    0.5863    0.0000 C.3     1  UNL1        0.2332
     24 C           3.7320   -1.4504    0.0000 C.ar    1  UNL1        0.1657
     25 C           7.2526    2.5704    0.0000 C.3     1  UNL1        0.0788
     26 C           2.0000   -0.4504    0.0000 C.3     1  UNL1        0.0791
     27 H           8.9985   -1.0429    0.0000 H       1  UNL1        0.0663
     28 H           8.9860    2.1971    0.0000 H       1  UNL1        0.0692
     29 H           7.7998   -1.7833    0.0000 H       1  UNL1        0.1037
     30 H           4.5981   -2.5704    0.0000 H       1  UNL1        0.0692
     31 H          11.8506    0.1734    0.0000 H       1  UNL1        0.1166
     32 H          11.8474    1.0028    0.0000 H       1  UNL1        0.1166
     33 H           4.0611    1.3596    0.0000 H       1  UNL1        0.2923
     34 H           7.8725    2.5728    0.0000 H       1  UNL1        0.0660
     35 H           7.2502    3.1904    0.0000 H       1  UNL1        0.0660
     36 H           6.6326    2.5680    0.0000 H       1  UNL1        0.0660
     37 H           2.8660   -2.5704    0.0000 H       1  UNL1        0.2923
     38 H           1.6900    0.0865    0.0000 H       1  UNL1        0.0660
     39 H           1.4631   -0.7604    0.0000 H       1  UNL1        0.0660
     40 H           2.3100   -0.9873    0.0000 H       1  UNL1        0.0660
@<TRIPOS>BOND
     1     1    16   ar
     2     1    20   ar
     3     2    14    1
     4     2    23    1
     5     3    17    1
     6     3    23    1
     7     4    13    1
     8     4    25    1
     9     5    12    2
    10     6    22    1
    11     6    26    1
    12     7    19    1
    13     7    33    1
    14     8    24    1
    15     8    37    1
    16     9    10    1
    17     9    13   ar
    18     9    15   ar
    19    10    12   ar
    20    10    20   ar
    21    11    12   ar
    22    11    16   ar
    23    11    19   ar
    24    13    18   ar
    25    14    15   ar
    26    14    17   ar
    27    15    27    1
    28    16    21   ar
    29    17    18   ar
    30    18    28    1
    31    19    22   ar
    32    20    29    1
    33    21    24   ar
    34    21    30    1
    35    22    24   ar
    36    23    31    1
    37    23    32    1
    38    25    34    1
    39    25    35    1
    40    25    36    1
    41    26    38    1
    42    26    39    1
    43    26    40    1
