@<TRIPOS>MOLECULE
IMPHY017178
 21 21 0 0 0
SMALL
GASTEIGER

@<TRIPOS>ATOM
      1 O           2.8660    0.3450    0.0000 O.3     1  UNL1       -0.4914
      2 O           4.5981    1.3450    0.0000 O.3     1  UNL1       -0.5029
      3 C           5.4641   -0.1550    0.0000 C.ar    1  UNL1        0.0195
      4 C           4.5981    0.3450    0.0000 C.ar    1  UNL1        0.1657
      5 C           3.7320   -0.1550    0.0000 C.ar    1  UNL1        0.1619
      6 C           5.4641   -1.1550    0.0000 C.ar    1  UNL1       -0.0509
      7 C           3.7320   -1.1550    0.0000 C.ar    1  UNL1       -0.0163
      8 C           4.5981   -1.6550    0.0000 C.ar    1  UNL1       -0.0575
      9 C           6.3301    0.3450    0.0000 C.2     1  UNL1       -0.0581
     10 C           2.0000   -0.1550    0.0000 C.3     1  UNL1        0.0790
     11 C           7.1962   -0.1550    0.0000 C.2     1  UNL1       -0.0980
     12 H           6.0010   -1.4650    0.0000 H       1  UNL1        0.0625
     13 H           3.1951   -1.4650    0.0000 H       1  UNL1        0.0655
     14 H           4.5981   -2.2750    0.0000 H       1  UNL1        0.0619
     15 H           6.3301    0.9650    0.0000 H       1  UNL1        0.0619
     16 H           1.6900    0.3819    0.0000 H       1  UNL1        0.0660
     17 H           1.4631   -0.4650    0.0000 H       1  UNL1        0.0660
     18 H           2.3100   -0.6919    0.0000 H       1  UNL1        0.0660
     19 H           5.1350    1.6550    0.0000 H       1  UNL1        0.2923
     20 H           7.1962   -0.7750    0.0000 H       1  UNL1        0.0535
     21 H           7.7331    0.1550    0.0000 H       1  UNL1        0.0535
@<TRIPOS>BOND
     1     1     5    1
     2     1    10    1
     3     2     4    1
     4     2    19    1
     5     3     4   ar
     6     3     6   ar
     7     3     9    1
     8     4     5   ar
     9     5     7   ar
    10     6     8   ar
    11     6    12    1
    12     7     8   ar
    13     7    13    1
    14     8    14    1
    15     9    11    2
    16     9    15    1
    17    10    16    1
    18    10    17    1
    19    10    18    1
    20    11    20    1
    21    11    21    1
