@<TRIPOS>MOLECULE
IMPHY016925
 20 21 0 0 0
SMALL
GASTEIGER
****
Copyrights - http://chemeo.com/rights
@<TRIPOS>ATOM
      1 C          -7.8667   -1.2665    0.0000 C.ar    1  UNL1       -0.0000
      2 C          -7.8580    0.2334    0.0000 C.ar    1  UNL1       -0.0000
      3 C          -6.5546    0.9758    0.0000 C.ar    1  UNL1       -0.0000
      4 C          -5.2599    0.2182    0.0000 C.ar    1  UNL1       -0.0002
      5 C          -5.2687   -1.2817    0.0000 C.ar    1  UNL1       -0.0000
      6 C          -6.5721   -2.0241    0.0000 C.ar    1  UNL1       -0.0000
      7 C          -3.9565    0.9606    0.0000 C.2     1  UNL1       -0.0009
      8 C          -2.6619    0.2031    0.0000 C.2     1  UNL1        0.0208
      9 C          -1.3585    0.9455    0.0000 C.3     1  UNL1        0.2348
     10 O          -0.0639    0.1879    0.0000 O.3     1  UNL1       -0.4435
     11 C           1.2395    0.9303    0.0000 C.2     1  UNL1        0.3176
     12 O           1.2483    2.4302    0.0000 O.2     1  UNL1       -0.2501
     13 C           2.5342    0.1727    0.0000 C.3     1  UNL1        0.1142
     14 C           3.8376    0.9151    0.0000 C.3     1  UNL1        0.0380
     15 C           5.1322    0.1575    0.0000 C.ar    1  UNL1       -0.0216
     16 C           5.1234   -1.3425    0.0000 C.ar    1  UNL1       -0.0043
     17 C           6.4181   -2.1000    0.0000 C.ar    1  UNL1       -0.0003
     18 C           7.7215   -1.3577    0.0000 C.ar    1  UNL1       -0.0000
     19 C           7.7302    0.1423    0.0000 C.ar    1  UNL1       -0.0003
     20 C           6.4356    0.8999    0.0000 C.ar    1  UNL1       -0.0043
@<TRIPOS>BOND
     1     1     2   ar
     2     2     3   ar
     3     3     4   ar
     4     4     5   ar
     5     4     7    1
     6     5     6   ar
     7     6     1   ar
     8     7     8    2
     9     8     9    1
    10     9    10    1
    11    10    11    1
    12    11    12    2
    13    11    13    1
    14    13    14    1
    15    14    15    1
    16    15    16   ar
    17    16    17   ar
    18    17    18   ar
    19    18    19   ar
    20    19    20   ar
    21    20    15   ar
