@<TRIPOS>MOLECULE
IMPHY006376
 28 29 0 0 0
SMALL
GASTEIGER

@<TRIPOS>ATOM
      1 O           4.2690    2.0950    0.0000 O.2     1  UNL1       -0.4226
      2 O           2.5369   -2.9050    0.0000 O.3     1  UNL1       -0.5033
      3 O           4.2690   -3.9050    0.0000 O.3     1  UNL1       -0.5033
      4 O           6.8671    3.5950    0.0000 O.3     1  UNL1       -0.5064
      5 O           3.4030    3.5950    0.0000 O.2     1  UNL1       -0.2451
      6 C           4.2690   -0.9050    0.0000 C.ar    1  UNL1       -0.0212
      7 C           4.2690    0.0950    0.0000 C.2     1  UNL1       -0.0510
      8 C           3.4030   -1.4050    0.0000 C.ar    1  UNL1       -0.0094
      9 C           5.1350   -1.4050    0.0000 C.ar    1  UNL1       -0.0509
     10 C           5.1350    1.5950    0.0000 C.ar    1  UNL1        0.1354
     11 C           5.1350    0.5950    0.0000 C.2     1  UNL1       -0.0185
     12 C           3.4030   -2.4050    0.0000 C.ar    1  UNL1        0.1588
     13 C           4.2690   -2.9050    0.0000 C.ar    1  UNL1        0.1582
     14 C           5.1350   -2.4050    0.0000 C.ar    1  UNL1       -0.0160
     15 C           6.0010    2.0950    0.0000 C.ar    1  UNL1        0.0225
     16 C           6.0010    3.0950    0.0000 C.ar    1  UNL1        0.1271
     17 C           5.1350    3.5950    0.0000 C.ar    1  UNL1        0.0644
     18 C           4.2690    3.0950    0.0000 C.ar    1  UNL1        0.3407
     19 H           3.7320    0.4050    0.0000 H       1  UNL1        0.0625
     20 H           2.8660   -1.0950    0.0000 H       1  UNL1        0.0661
     21 H           5.6720   -1.0950    0.0000 H       1  UNL1        0.0625
     22 H           5.6720    0.2850    0.0000 H       1  UNL1        0.0654
     23 H           5.6720   -2.7150    0.0000 H       1  UNL1        0.0655
     24 H           6.5380    1.7850    0.0000 H       1  UNL1        0.0691
     25 H           5.1350    4.2150    0.0000 H       1  UNL1        0.0726
     26 H           2.0000   -2.5950    0.0000 H       1  UNL1        0.2923
     27 H           4.8059   -4.2150    0.0000 H       1  UNL1        0.2923
     28 H           6.8671    4.2150    0.0000 H       1  UNL1        0.2921
@<TRIPOS>BOND
     1     1    10   ar
     2     1    18   ar
     3     2    12    1
     4     2    26    1
     5     3    13    1
     6     3    27    1
     7     4    16    1
     8     4    28    1
     9     5    18    2
    10     6     7    1
    11     6     8   ar
    12     6     9   ar
    13     7    11    2
    14     7    19    1
    15     8    12   ar
    16     8    20    1
    17     9    14   ar
    18     9    21    1
    19    10    11    1
    20    10    15   ar
    21    11    22    1
    22    12    13   ar
    23    13    14   ar
    24    14    23    1
    25    15    16   ar
    26    15    24    1
    27    16    17   ar
    28    17    18   ar
    29    17    25    1
