@<TRIPOS>MOLECULE
IMPHY017108
 32 31 0 0 0
SMALL
GASTEIGER

@<TRIPOS>ATOM
      1 O           6.2089    4.1200    0.0000 O.3     1  UNL1       -0.3725
      2 N           0.5369    2.8700    0.0000 N.3     1  UNL1       -0.3327
      3 C           5.3429    3.6200    0.0000 C.3     1  UNL1        0.0808
      4 C           5.3429    2.6200    0.0000 C.ar    1  UNL1       -0.0192
      5 C           4.4768    4.1200    0.0000 C.3     1  UNL1       -0.0345
      6 C           4.4768    2.1200    0.0000 C.ar    1  UNL1       -0.0561
      7 C           6.2089    2.1200    0.0000 C.ar    1  UNL1       -0.0561
      8 C           6.2089    5.1200    0.0000 C.3     1  UNL1        0.0456
      9 C           4.4768    1.1200    0.0000 C.ar    1  UNL1       -0.0614
     10 C           6.2089    1.1200    0.0000 C.ar    1  UNL1       -0.0614
     11 C           5.3429    0.6200    0.0000 C.ar    1  UNL1       -0.0617
     12 C           7.0749    5.6200    0.0000 C.3     1  UNL1       -0.0415
     13 C           1.4030    3.3700    0.0000 C.3     1  UNL1       -0.0188
     14 H           5.3429    4.2400    0.0000 H       1  UNL1        0.0643
     15 H           4.7868    4.6569    0.0000 H       1  UNL1        0.0258
     16 H           3.9399    4.4300    0.0000 H       1  UNL1        0.0258
     17 H           4.1668    3.5831    0.0000 H       1  UNL1        0.0258
     18 H           3.9399    2.4300    0.0000 H       1  UNL1        0.0621
     19 H           6.7458    2.4300    0.0000 H       1  UNL1        0.0621
     20 H           5.9968    5.7026    0.0000 H       1  UNL1        0.0557
     21 H           5.5983    5.0123    0.0000 H       1  UNL1        0.0557
     22 H           3.9399    0.8100    0.0000 H       1  UNL1        0.0618
     23 H           6.7458    0.8100    0.0000 H       1  UNL1        0.0618
     24 H           5.3429    0.0000    0.0000 H       1  UNL1        0.0618
     25 H           7.3849    5.0831    0.0000 H       1  UNL1        0.0252
     26 H           7.6118    5.9300    0.0000 H       1  UNL1        0.0252
     27 H           6.7649    6.1569    0.0000 H       1  UNL1        0.0252
     28 H           1.7130    2.8331    0.0000 H       1  UNL1        0.0386
     29 H           1.9399    3.6800    0.0000 H       1  UNL1        0.0386
     30 H           1.0930    3.9069    0.0000 H       1  UNL1        0.0386
     31 H           0.0000    3.1800    0.0000 H       1  UNL1        0.1180
     32 H           0.5369    2.2500    0.0000 H       1  UNL1        0.1180
@<TRIPOS>BOND
     1     1     3    1
     2     1     8    1
     3     2    13    1
     4     2    31    1
     5     2    32    1
     6     3     4    1
     7     3     5    1
     8     3    14    1
     9     4     6   ar
    10     4     7   ar
    11     5    15    1
    12     5    16    1
    13     5    17    1
    14     6     9   ar
    15     6    18    1
    16     7    10   ar
    17     7    19    1
    18     8    12    1
    19     8    20    1
    20     8    21    1
    21     9    11   ar
    22     9    22    1
    23    10    11   ar
    24    10    23    1
    25    11    24    1
    26    12    25    1
    27    12    26    1
    28    12    27    1
    29    13    28    1
    30    13    29    1
    31    13    30    1
