@<TRIPOS>MOLECULE
IMPHY005813
 12 12 0 0 0
SMALL
GASTEIGER

@<TRIPOS>ATOM
      1 O           2.0000    0.8100    0.0000 O.2     1  UNL1       -0.2768
      2 O           2.0000   -1.1900    0.0000 O.2     1  UNL1       -0.2660
      3 O           3.7320    1.8100    0.0000 O.2     1  UNL1       -0.2660
      4 O           5.4641   -1.1900    0.0000 O.2     1  UNL1       -0.2520
      5 N           3.7320   -1.1900    0.0000 N.am    1  UNL1       -0.2330
      6 N           4.5981    0.3100    0.0000 N.am    1  UNL1       -0.2330
      7 C           2.8660    0.3100    0.0000 C.2     1  UNL1        0.3020
      8 C           2.8660   -0.6900    0.0000 C.2     1  UNL1        0.2965
      9 C           3.7320    0.8100    0.0000 C.2     1  UNL1        0.2965
     10 C           4.5981   -0.6900    0.0000 C.2     1  UNL1        0.3128
     11 H           3.7320   -1.8100    0.0000 H       1  UNL1        0.1595
     12 H           5.1350    0.6200    0.0000 H       1  UNL1        0.1595
@<TRIPOS>BOND
     1     1     7    2
     2     2     8    2
     3     3     9    2
     4     4    10    2
     5     5     8   am
     6     5    10   am
     7     5    11    1
     8     6     9   am
     9     6    10   am
    10     6    12    1
    11     7     8    1
    12     7     9    1
