@<TRIPOS>MOLECULE
IMPHY007000
 39 41 0 0 0
SMALL
GASTEIGER

@<TRIPOS>ATOM
      1 O           6.0682   -0.7277    0.0000 O.3     1  UNL1       -0.4827
      2 O           4.3198   -1.7623    0.0000 O.3     1  UNL1       -0.4885
      3 O           6.0682    2.2723    0.0000 O.2     1  UNL1       -0.2867
      4 O           2.5381   -0.7519    0.0000 O.3     1  UNL1       -0.5032
      5 O          11.2644   -0.7277    0.0000 O.3     1  UNL1       -0.4951
      6 C           5.2022    0.7723    0.0000 C.ar    1  UNL1        0.0675
      7 C           6.9343    0.7723    0.0000 C.2     1  UNL1        0.0375
      8 C           5.2022   -0.2277    0.0000 C.ar    1  UNL1        0.1768
      9 C           6.9343   -0.2277    0.0000 C.3     1  UNL1        0.1184
     10 C           6.0682    1.2723    0.0000 C.2     1  UNL1        0.1961
     11 C           4.3083   -0.7624    0.0000 C.ar    1  UNL1        0.2040
     12 C           7.8003    1.2723    0.0000 C.2     1  UNL1       -0.0445
     13 C           4.3083    1.3070    0.0000 C.ar    1  UNL1       -0.0437
     14 C           8.6663    0.7723    0.0000 C.ar    1  UNL1       -0.0243
     15 C           3.4022   -0.2485    0.0000 C.ar    1  UNL1        0.1622
     16 C           3.4022    0.7931    0.0000 C.ar    1  UNL1       -0.0156
     17 C           8.6663   -0.2277    0.0000 C.ar    1  UNL1       -0.0511
     18 C           9.5323    1.2723    0.0000 C.ar    1  UNL1       -0.0511
     19 C           9.5323   -0.7277    0.0000 C.ar    1  UNL1       -0.0194
     20 C          10.3984    0.7723    0.0000 C.ar    1  UNL1       -0.0194
     21 C          10.3984   -0.2277    0.0000 C.ar    1  UNL1        0.1201
     22 C           3.4597   -2.2723    0.0000 C.3     1  UNL1        0.0791
     23 C          12.1304   -0.2277    0.0000 C.3     1  UNL1        0.0788
     24 H           7.1463   -0.8103    0.0000 H       1  UNL1        0.0749
     25 H           7.5449   -0.1201    0.0000 H       1  UNL1        0.0749
     26 H           7.8003    1.8923    0.0000 H       1  UNL1        0.0628
     27 H           4.3154    1.9269    0.0000 H       1  UNL1        0.0627
     28 H           2.8665    1.1052    0.0000 H       1  UNL1        0.0655
     29 H           8.1294   -0.5377    0.0000 H       1  UNL1        0.0625
     30 H           9.5323    1.8923    0.0000 H       1  UNL1        0.0625
     31 H           9.5323   -1.3477    0.0000 H       1  UNL1        0.0654
     32 H          10.9353    1.0823    0.0000 H       1  UNL1        0.0654
     33 H           2.0000   -0.4439    0.0000 H       1  UNL1        0.2923
     34 H           3.1435   -1.7390    0.0000 H       1  UNL1        0.0660
     35 H           2.9263   -2.5885    0.0000 H       1  UNL1        0.0660
     36 H           3.7758   -2.8056    0.0000 H       1  UNL1        0.0660
     37 H          12.4404   -0.7646    0.0000 H       1  UNL1        0.0660
     38 H          12.6674    0.0823    0.0000 H       1  UNL1        0.0660
     39 H          11.8204    0.3092    0.0000 H       1  UNL1        0.0660
@<TRIPOS>BOND
     1     1     8    1
     2     1     9    1
     3     2    11    1
     4     2    22    1
     5     3    10    2
     6     4    15    1
     7     4    33    1
     8     5    21    1
     9     5    23    1
    10     6     8   ar
    11     6    10    1
    12     6    13   ar
    13     7     9    1
    14     7    10    1
    15     7    12    2
    16     8    11   ar
    17     9    24    1
    18     9    25    1
    19    11    15   ar
    20    12    14    1
    21    12    26    1
    22    13    16   ar
    23    13    27    1
    24    14    17   ar
    25    14    18   ar
    26    15    16   ar
    27    16    28    1
    28    17    19   ar
    29    17    29    1
    30    18    20   ar
    31    18    30    1
    32    19    21   ar
    33    19    31    1
    34    20    21   ar
    35    20    32    1
    36    22    34    1
    37    22    35    1
    38    22    36    1
    39    23    37    1
    40    23    38    1
    41    23    39    1
