@<TRIPOS>MOLECULE
IMPHY003849
 62 64 0 0 0
SMALL
GASTEIGER

@<TRIPOS>ATOM
      1 O           6.2061   -2.0422    0.0000 O.3     1  UNL1       -0.3639
      2 O           8.0018   -0.2550    0.0000 O.3     1  UNL1       -0.4585
      3 O           3.6629   -0.7758    0.0000 O.2     1  UNL1       -0.4606
      4 O           4.5806   -2.2896    0.0000 O.3     1  UNL1       -0.4244
      5 O           3.7204    2.2896    0.0000 O.3     1  UNL1       -0.4601
      6 O           8.0018    1.4771    0.0000 O.2     1  UNL1       -0.2512
      7 O           2.8486   -2.3096    0.0000 O.2     1  UNL1       -0.2507
      8 O           4.6037    3.7795    0.0000 O.2     1  UNL1       -0.2508
      9 C           6.4140   -1.0640    0.0000 C.3     1  UNL1        0.1395
     10 C           5.4629   -0.7550    0.0000 C.3     1  UNL1        0.0747
     11 C           5.4629    0.2450    0.0000 C.3     1  UNL1        0.0024
     12 C           7.0018   -0.2550    0.0000 C.3     1  UNL1        0.1351
     13 C           7.1571   -1.7331    0.0000 C.3     1  UNL1        0.0817
     14 C           6.4140    0.5540    0.0000 C.3     1  UNL1       -0.0055
     15 C           4.5690   -1.2896    0.0000 C.3     1  UNL1        0.2515
     16 C           4.5690    0.7797    0.0000 C.2     1  UNL1        0.0055
     17 C           3.6629    0.2658    0.0000 C.2     1  UNL1        0.0917
     18 C           4.5806    1.7796    0.0000 C.3     1  UNL1        0.1169
     19 C           8.5018    0.6110    0.0000 C.2     1  UNL1        0.3043
     20 C           3.7204   -2.7996    0.0000 C.2     1  UNL1        0.3102
     21 C           9.5018    0.6110    0.0000 C.3     1  UNL1        0.0332
     22 C           3.7319   -3.7995    0.0000 C.3     1  UNL1        0.0474
     23 C           3.7319    3.2895    0.0000 C.2     1  UNL1        0.3076
     24 C           2.8718   -4.3095    0.0000 C.3     1  UNL1       -0.0367
     25 C           2.8718    3.7995    0.0000 C.3     1  UNL1        0.0473
     26 C           2.8833   -5.3094    0.0000 C.3     1  UNL1       -0.0622
     27 C           2.0000   -3.8195    0.0000 C.3     1  UNL1       -0.0622
     28 C           2.8833    4.7994    0.0000 C.3     1  UNL1       -0.0367
     29 C           2.0231    5.3094    0.0000 C.3     1  UNL1       -0.0622
     30 C           3.7551    5.2894    0.0000 C.3     1  UNL1       -0.0622
     31 H           5.5583   -1.5996    0.0000 H       1  UNL1        0.0409
     32 H           5.5583    1.0896    0.0000 H       1  UNL1        0.0355
     33 H           7.2832   -0.8074    0.0000 H       1  UNL1        0.0764
     34 H           7.4482   -2.2806    0.0000 H       1  UNL1        0.0590
     35 H           7.6457   -1.3514    0.0000 H       1  UNL1        0.0590
     36 H           6.9509    0.8640    0.0000 H       1  UNL1        0.0308
     37 H           6.1618    1.1204    0.0000 H       1  UNL1        0.0308
     38 H           4.0351   -1.6048    0.0000 H       1  UNL1        0.1210
     39 H           3.1272    0.5779    0.0000 H       1  UNL1        0.1025
     40 H           5.1898    1.6649    0.0000 H       1  UNL1        0.0746
     41 H           4.7993    2.3597    0.0000 H       1  UNL1        0.0746
     42 H           9.5018   -0.0090    0.0000 H       1  UNL1        0.0342
     43 H          10.1218    0.6110    0.0000 H       1  UNL1        0.0342
     44 H           9.5018    1.2310    0.0000 H       1  UNL1        0.0342
     45 H           3.9507   -4.3796    0.0000 H       1  UNL1        0.0380
     46 H           4.3412   -3.6848    0.0000 H       1  UNL1        0.0380
     47 H           2.8646   -3.6895    0.0000 H       1  UNL1        0.0301
     48 H           2.2624    3.9142    0.0000 H       1  UNL1        0.0380
     49 H           2.6530    3.2194    0.0000 H       1  UNL1        0.0380
     50 H           2.2634   -5.3166    0.0000 H       1  UNL1        0.0232
     51 H           2.8905   -5.9294    0.0000 H       1  UNL1        0.0232
     52 H           3.5033   -5.3022    0.0000 H       1  UNL1        0.0232
     53 H           2.3038   -3.2790    0.0000 H       1  UNL1        0.0232
     54 H           1.4595   -3.5158    0.0000 H       1  UNL1        0.0232
     55 H           1.6962   -4.3600    0.0000 H       1  UNL1        0.0232
     56 H           3.4166    4.4832    0.0000 H       1  UNL1        0.0301
     57 H           2.3393    5.8427    0.0000 H       1  UNL1        0.0232
     58 H           4.0588    4.7489    0.0000 H       1  UNL1        0.0232
     59 H           4.2956    5.5931    0.0000 H       1  UNL1        0.0232
     60 H           3.4513    5.8299    0.0000 H       1  UNL1        0.0232
     61 H           1.4898    5.6256    0.0000 H       1  UNL1        0.0232
     62 H           1.7069    4.7761    0.0000 H       1  UNL1        0.0232
@<TRIPOS>BOND
     1     9     1    1
     2     1    13    1
     3    12     2    1
     4     2    19    1
     5     3    15    1
     6     3    17    1
     7    15     4    1
     8     4    20    1
     9     5    18    1
    10     5    23    1
    11     6    19    2
    12     7    20    2
    13     8    23    2
    14     9    10    1
    15     9    12    1
    16     9    13    1
    17    10    11    1
    18    10    15    1
    19    10    31    1
    20    11    14    1
    21    11    16    1
    22    11    32    1
    23    12    14    1
    24    12    33    1
    25    13    34    1
    26    13    35    1
    27    14    36    1
    28    14    37    1
    29    15    38    1
    30    16    17    2
    31    16    18    1
    32    17    39    1
    33    18    40    1
    34    18    41    1
    35    19    21    1
    36    20    22    1
    37    21    42    1
    38    21    43    1
    39    21    44    1
    40    22    24    1
    41    22    45    1
    42    22    46    1
    43    23    25    1
    44    24    26    1
    45    24    27    1
    46    24    47    1
    47    25    28    1
    48    25    48    1
    49    25    49    1
    50    26    50    1
    51    26    51    1
    52    26    52    1
    53    27    53    1
    54    27    54    1
    55    27    55    1
    56    28    29    1
    57    28    30    1
    58    28    56    1
    59    29    57    1
    60    29    61    1
    61    29    62    1
    62    30    58    1
    63    30    59    1
    64    30    60    1
