@<TRIPOS>MOLECULE
IMPHY005969
 48 50 0 0 0
SMALL
GASTEIGER

@<TRIPOS>ATOM
      1 O           8.6793   -1.0501    0.0000 O.3     1  UNL1       -0.4796
      2 O           8.3221    2.2542    0.0000 O.3     1  UNL1       -0.3943
      3 O           6.8671   -2.2454    0.0000 O.3     1  UNL1       -0.4914
      4 O          12.2629   -1.9774    0.0000 O.3     1  UNL1       -0.4914
      5 O          13.2629   -0.2454    0.0000 O.3     1  UNL1       -0.5033
      6 O           2.5369    0.2546    0.0000 O.3     1  UNL1       -0.3910
      7 C           8.6793    0.5593    0.0000 C.3     1  UNL1        0.0520
      8 C           9.2629   -0.2454    0.0000 C.3     1  UNL1        0.1344
      9 C           7.7331    0.2546    0.0000 C.ar    1  UNL1        0.0076
     10 C           7.7331   -0.7454    0.0000 C.ar    1  UNL1        0.1665
     11 C           8.9900    1.5098    0.0000 C.3     1  UNL1        0.0548
     12 C          10.2629   -0.2454    0.0000 C.ar    1  UNL1       -0.0030
     13 C           6.8671    0.7546    0.0000 C.ar    1  UNL1       -0.0472
     14 C           6.8671   -1.2454    0.0000 C.ar    1  UNL1        0.1624
     15 C           6.0010    0.2546    0.0000 C.ar    1  UNL1       -0.0213
     16 C          10.7629   -1.1114    0.0000 C.ar    1  UNL1       -0.0096
     17 C           6.0010   -0.7454    0.0000 C.ar    1  UNL1       -0.0091
     18 C          10.7629    0.6206    0.0000 C.ar    1  UNL1       -0.0514
     19 C          11.7629   -1.1114    0.0000 C.ar    1  UNL1        0.1616
     20 C          11.7629    0.6206    0.0000 C.ar    1  UNL1       -0.0161
     21 C           5.1350    0.7546    0.0000 C.2     1  UNL1       -0.0563
     22 C          12.2629   -0.2454    0.0000 C.ar    1  UNL1        0.1585
     23 C           6.0010   -2.7454    0.0000 C.3     1  UNL1        0.0790
     24 C           4.2690    0.2546    0.0000 C.2     1  UNL1       -0.0584
     25 C           3.4030    0.7546    0.0000 C.3     1  UNL1        0.0627
     26 C          11.7629   -2.8435    0.0000 C.3     1  UNL1        0.0790
     27 H           8.2418    0.9987    0.0000 H       1  UNL1        0.0412
     28 H           9.5446   -0.7977    0.0000 H       1  UNL1        0.0791
     29 H           9.5369    1.2178    0.0000 H       1  UNL1        0.0564
     30 H           9.3725    1.9978    0.0000 H       1  UNL1        0.0564
     31 H           6.8671    1.3746    0.0000 H       1  UNL1        0.0627
     32 H          10.4529   -1.6484    0.0000 H       1  UNL1        0.0659
     33 H           5.4641   -1.0554    0.0000 H       1  UNL1        0.0661
     34 H          10.4529    1.1576    0.0000 H       1  UNL1        0.0623
     35 H           8.5147    2.8435    0.0000 H       1  UNL1        0.2094
     36 H          12.0729    1.1576    0.0000 H       1  UNL1        0.0655
     37 H           5.1350    1.3746    0.0000 H       1  UNL1        0.0621
     38 H           5.6910   -2.2085    0.0000 H       1  UNL1        0.0660
     39 H           5.4641   -3.0554    0.0000 H       1  UNL1        0.0660
     40 H           6.3110   -3.2823    0.0000 H       1  UNL1        0.0660
     41 H           4.2690   -0.3654    0.0000 H       1  UNL1        0.0595
     42 H          13.5729    0.2915    0.0000 H       1  UNL1        0.2923
     43 H           3.8015    1.2296    0.0000 H       1  UNL1        0.0601
     44 H           3.0044    1.2296    0.0000 H       1  UNL1        0.0601
     45 H          11.2260   -2.5335    0.0000 H       1  UNL1        0.0660
     46 H          11.4529   -3.3804    0.0000 H       1  UNL1        0.0660
     47 H          12.2999   -3.1535    0.0000 H       1  UNL1        0.0660
     48 H           2.0000    0.5646    0.0000 H       1  UNL1        0.2098
@<TRIPOS>BOND
     1     1     8    1
     2     1    10    1
     3     2    11    1
     4     2    35    1
     5     3    14    1
     6     3    23    1
     7     4    19    1
     8     4    26    1
     9     5    22    1
    10     5    42    1
    11     6    25    1
    12     6    48    1
    13     7     8    1
    14     7     9    1
    15     7    11    1
    16     7    27    1
    17     8    12    1
    18     8    28    1
    19     9    10   ar
    20     9    13   ar
    21    10    14   ar
    22    11    29    1
    23    11    30    1
    24    12    16   ar
    25    12    18   ar
    26    13    15   ar
    27    13    31    1
    28    14    17   ar
    29    15    17   ar
    30    15    21    1
    31    16    19   ar
    32    16    32    1
    33    17    33    1
    34    18    20   ar
    35    18    34    1
    36    19    22   ar
    37    20    22   ar
    38    20    36    1
    39    21    24    2
    40    21    37    1
    41    23    38    1
    42    23    39    1
    43    23    40    1
    44    24    25    1
    45    24    41    1
    46    25    43    1
    47    25    44    1
    48    26    45    1
    49    26    46    1
    50    26    47    1
