@<TRIPOS>MOLECULE
IMPHY011630
 42 41 0 0 0
SMALL
GASTEIGER

@<TRIPOS>ATOM
      1 O           9.7942    2.6900    0.0000 O.3     1  UNL1       -0.3910
      2 C           4.5981   -0.3100    0.0000 C.3     1  UNL1       -0.0286
      3 C           6.3301    0.6900    0.0000 C.3     1  UNL1       -0.0308
      4 C           4.5981    0.6900    0.0000 C.2     1  UNL1       -0.0762
      5 C           7.1962    1.1900    0.0000 C.3     1  UNL1       -0.0285
      6 C           3.7320   -0.8100    0.0000 C.3     1  UNL1       -0.0308
      7 C           5.4641    1.1900    0.0000 C.2     1  UNL1       -0.0847
      8 C           8.0622    0.6900    0.0000 C.2     1  UNL1       -0.0741
      9 C           3.7320    1.1900    0.0000 C.3     1  UNL1       -0.0438
     10 C           3.7320   -1.8100    0.0000 C.2     1  UNL1       -0.0850
     11 C           2.8660   -2.3100    0.0000 C.2     1  UNL1       -0.0796
     12 C           8.0622   -0.3100    0.0000 C.3     1  UNL1       -0.0437
     13 C           8.9282    1.1900    0.0000 C.2     1  UNL1       -0.0600
     14 C           8.9282    2.1900    0.0000 C.3     1  UNL1        0.0626
     15 C           2.8660   -3.3100    0.0000 C.3     1  UNL1       -0.0440
     16 C           2.0000   -1.8100    0.0000 C.3     1  UNL1       -0.0440
     17 H           4.8101   -0.8926    0.0000 H       1  UNL1        0.0313
     18 H           5.2087   -0.2023    0.0000 H       1  UNL1        0.0313
     19 H           5.9316    0.2151    0.0000 H       1  UNL1        0.0310
     20 H           6.7287    0.2151    0.0000 H       1  UNL1        0.0310
     21 H           7.5947    1.6650    0.0000 H       1  UNL1        0.0313
     22 H           6.7976    1.6650    0.0000 H       1  UNL1        0.0313
     23 H           3.5200   -0.2274    0.0000 H       1  UNL1        0.0310
     24 H           3.1215   -0.9177    0.0000 H       1  UNL1        0.0310
     25 H           5.4641    1.8100    0.0000 H       1  UNL1        0.0572
     26 H           4.0420    1.7269    0.0000 H       1  UNL1        0.0274
     27 H           3.1951    1.5000    0.0000 H       1  UNL1        0.0274
     28 H           3.4220    0.6531    0.0000 H       1  UNL1        0.0274
     29 H           4.2690   -2.1200    0.0000 H       1  UNL1        0.0572
     30 H           7.4422   -0.3100    0.0000 H       1  UNL1        0.0274
     31 H           8.0622   -0.9300    0.0000 H       1  UNL1        0.0274
     32 H           8.6822   -0.3100    0.0000 H       1  UNL1        0.0274
     33 H           9.4651    0.8800    0.0000 H       1  UNL1        0.0594
     34 H           8.7162    2.7726    0.0000 H       1  UNL1        0.0601
     35 H           8.3176    2.0823    0.0000 H       1  UNL1        0.0601
     36 H           2.2460   -3.3100    0.0000 H       1  UNL1        0.0274
     37 H           2.8660   -3.9300    0.0000 H       1  UNL1        0.0274
     38 H           3.4860   -3.3100    0.0000 H       1  UNL1        0.0274
     39 H           2.3100   -1.2731    0.0000 H       1  UNL1        0.0274
     40 H           1.4631   -1.5000    0.0000 H       1  UNL1        0.0274
     41 H           1.6900   -2.3469    0.0000 H       1  UNL1        0.0274
     42 H           9.7942    3.3100    0.0000 H       1  UNL1        0.2098
@<TRIPOS>BOND
     1     1    14    1
     2     1    42    1
     3     2     4    1
     4     2     6    1
     5     2    17    1
     6     2    18    1
     7     3     5    1
     8     3     7    1
     9     3    19    1
    10     3    20    1
    11     4     7    2
    12     4     9    1
    13     5     8    1
    14     5    21    1
    15     5    22    1
    16     6    10    1
    17     6    23    1
    18     6    24    1
    19     7    25    1
    20     8    12    1
    21     8    13    2
    22     9    26    1
    23     9    27    1
    24     9    28    1
    25    10    11    2
    26    10    29    1
    27    11    15    1
    28    11    16    1
    29    12    30    1
    30    12    31    1
    31    12    32    1
    32    13    14    1
    33    13    33    1
    34    14    34    1
    35    14    35    1
    36    15    36    1
    37    15    37    1
    38    15    38    1
    39    16    39    1
    40    16    40    1
    41    16    41    1
