@<TRIPOS>MOLECULE
IMPHY005120
 42 45 0 0 0
SMALL
GASTEIGER

@<TRIPOS>ATOM
      1 O           2.8432   -0.7757    0.0000 O.3     1  UNL1       -0.3866
      2 O           5.6447    1.3728    0.0000 O.3     1  UNL1       -0.4566
      3 O           2.0000    0.4489    0.0000 O.3     1  UNL1       -0.4627
      4 O           3.5381    2.3387    0.0000 O.3     1  UNL1       -0.3839
      5 O           6.3518   -1.1821    0.0000 O.3     1  UNL1       -0.3799
      6 O           2.2072   -1.1242    0.0000 O.2     1  UNL1       -0.2499
      7 O           7.0273    0.4489    0.0000 O.2     1  UNL1       -0.2479
      8 C           4.7208   -0.8576    0.0000 C.3     1  UNL1        0.0431
      9 C           3.7969   -0.4749    0.0000 C.3     1  UNL1        0.0966
     10 C           3.4142    0.4489    0.0000 C.3     1  UNL1        0.1620
     11 C           4.6402   -1.8484    0.0000 C.3     1  UNL1       -0.0325
     12 C           3.7969    1.3728    0.0000 C.3     1  UNL1        0.1215
     13 C           4.3548    0.4489    0.0000 C.3     1  UNL1       -0.0014
     14 C           3.1533   -1.2325    0.0000 C.3     1  UNL1       -0.0218
     15 C           4.7208    1.7555    0.0000 C.3     1  UNL1        0.1333
     16 C           3.6734   -2.0797    0.0000 C.3     1  UNL1       -0.0471
     17 C           5.6447   -0.4749    0.0000 C.3     1  UNL1        0.1601
     18 C           2.7071    1.1560    0.0000 C.3     1  UNL1        0.1137
     19 C           2.7071   -0.2582    0.0000 C.2     1  UNL1        0.3224
     20 C           5.3995   -2.4992    0.0000 C.3     1  UNL1       -0.0617
     21 C           2.8906    1.7954    0.0000 C.3     1  UNL1       -0.0313
     22 C           6.0273    0.4489    0.0000 C.2     1  UNL1        0.3370
     23 H           4.4947   -2.4511    0.0000 H       1  UNL1        0.0305
     24 H           3.8482    0.8065    0.0000 H       1  UNL1        0.0309
     25 H           4.9748    0.4489    0.0000 H       1  UNL1        0.0309
     26 H           2.7256   -0.7837    0.0000 H       1  UNL1        0.0293
     27 H           2.6619   -1.6107    0.0000 H       1  UNL1        0.0293
     28 H           4.7208    2.6055    0.0000 H       1  UNL1        0.0763
     29 H           3.1139   -2.3468    0.0000 H       1  UNL1        0.0269
     30 H           3.8802   -2.6642    0.0000 H       1  UNL1        0.0269
     31 H           6.2527   -0.3540    0.0000 H       1  UNL1        0.0717
     32 H           3.1455    1.5944    0.0000 H       1  UNL1        0.0710
     33 H           2.2687    1.5944    0.0000 H       1  UNL1        0.0710
     34 H           4.9960   -2.9700    0.0000 H       1  UNL1        0.0233
     35 H           5.8702   -2.9027    0.0000 H       1  UNL1        0.0233
     36 H           5.8030   -2.0284    0.0000 H       1  UNL1        0.0233
     37 H           2.2704   -0.5384    0.0000 H       1  UNL1        0.2102
     38 H           3.1526    2.3573    0.0000 H       1  UNL1        0.0259
     39 H           2.3287    2.0574    0.0000 H       1  UNL1        0.0259
     40 H           2.6286    1.2335    0.0000 H       1  UNL1        0.0259
     41 H           2.9392    2.4992    0.0000 H       1  UNL1        0.2104
     42 H           6.9506   -1.0216    0.0000 H       1  UNL1        0.2105
@<TRIPOS>BOND
     1     9     1    1
     2     1    37    1
     3     2    15    1
     4     2    22    1
     5     3    18    1
     6     3    19    1
     7    12     4    1
     8     4    41    1
     9    17     5    1
    10     5    42    1
    11     6    19    2
    12     7    22    2
    13     8     9    1
    14     8    11    1
    15     8    13    1
    16     8    17    1
    17     9    10    1
    18     9    14    1
    19    10    12    1
    20    10    18    1
    21    10    19    1
    22    11    16    1
    23    11    20    1
    24    11    23    1
    25    12    15    1
    26    12    21    1
    27    13    15    1
    28    13    24    1
    29    13    25    1
    30    14    16    1
    31    14    26    1
    32    14    27    1
    33    15    28    1
    34    16    29    1
    35    16    30    1
    36    17    22    1
    37    17    31    1
    38    18    32    1
    39    18    33    1
    40    20    34    1
    41    20    35    1
    42    20    36    1
    43    21    38    1
    44    21    39    1
    45    21    40    1
