@<TRIPOS>MOLECULE
IMPHY001558
 57 60 0 0 0
SMALL
GASTEIGER

@<TRIPOS>ATOM
      1 O          10.4263   -2.1500    0.0000 O.3     1  UNL1       -0.4812
      2 O           6.0682   -0.6154    0.0000 O.3     1  UNL1       -0.4827
      3 O           6.9343   -2.1154    0.0000 O.3     1  UNL1       -0.5063
      4 O           6.0682    2.3846    0.0000 O.2     1  UNL1       -0.2917
      5 O           4.3198    2.4192    0.0000 O.3     1  UNL1       -0.5058
      6 O           2.5381   -0.6395    0.0000 O.3     1  UNL1       -0.5065
      7 C          11.3324   -1.6362    0.0000 C.3     1  UNL1        0.1266
      8 C          12.3324   -1.6401    0.0000 C.3     1  UNL1       -0.0060
      9 C           6.9343   -0.1154    0.0000 C.3     1  UNL1        0.1355
     10 C          11.3324   -0.5946    0.0000 C.2     1  UNL1       -0.0406
     11 C           7.8003   -0.6154    0.0000 C.ar    1  UNL1        0.0353
     12 C           9.5323   -0.6154    0.0000 C.ar    1  UNL1        0.0171
     13 C           9.5323   -1.6154    0.0000 C.ar    1  UNL1        0.1323
     14 C          11.8290   -2.5042    0.0000 C.3     1  UNL1       -0.0212
     15 C          12.8357   -0.7760    0.0000 C.3     1  UNL1       -0.0306
     16 C           6.9343    0.8846    0.0000 C.3     1  UNL1        0.0521
     17 C          10.4263   -0.0807    0.0000 C.2     1  UNL1       -0.0513
     18 C           8.6663   -0.1154    0.0000 C.ar    1  UNL1       -0.0409
     19 C           7.8003   -1.6154    0.0000 C.ar    1  UNL1        0.1270
     20 C           8.6663   -2.1154    0.0000 C.ar    1  UNL1        0.0226
     21 C           6.0682    1.3846    0.0000 C.2     1  UNL1        0.1740
     22 C           5.2022    0.8846    0.0000 C.ar    1  UNL1        0.1007
     23 C           5.2022   -0.1154    0.0000 C.ar    1  UNL1        0.1389
     24 C          13.8357   -0.7798    0.0000 C.2     1  UNL1       -0.0851
     25 C           4.3083    1.4193    0.0000 C.ar    1  UNL1        0.1343
     26 C           4.3083   -0.6501    0.0000 C.ar    1  UNL1        0.0225
     27 C          14.3390    0.0843    0.0000 C.2     1  UNL1       -0.0796
     28 C           3.4022   -0.1362    0.0000 C.ar    1  UNL1        0.1238
     29 C           3.4022    0.9054    0.0000 C.ar    1  UNL1        0.0222
     30 C          15.3390    0.0804    0.0000 C.3     1  UNL1       -0.0440
     31 C          13.8424    0.9522    0.0000 C.3     1  UNL1       -0.0440
     32 H          12.2223   -2.2502    0.0000 H       1  UNL1        0.0310
     33 H          12.9141   -1.8544    0.0000 H       1  UNL1        0.0310
     34 H           6.9343   -0.7354    0.0000 H       1  UNL1        0.0790
     35 H          11.8681   -0.2825    0.0000 H       1  UNL1        0.0611
     36 H          11.2909   -2.8121    0.0000 H       1  UNL1        0.0271
     37 H          12.1369   -3.0423    0.0000 H       1  UNL1        0.0271
     38 H          12.3671   -2.1962    0.0000 H       1  UNL1        0.0271
     39 H          12.9457   -0.1658    0.0000 H       1  UNL1        0.0309
     40 H          12.2539   -0.5617    0.0000 H       1  UNL1        0.0309
     41 H           7.5449    0.7769    0.0000 H       1  UNL1        0.0385
     42 H           7.1463    1.4672    0.0000 H       1  UNL1        0.0385
     43 H          10.4191    0.5392    0.0000 H       1  UNL1        0.0623
     44 H           8.6663    0.5046    0.0000 H       1  UNL1        0.0630
     45 H           8.6663   -2.7354    0.0000 H       1  UNL1        0.0691
     46 H          14.1436   -1.3180    0.0000 H       1  UNL1        0.0571
     47 H           4.3154   -1.2700    0.0000 H       1  UNL1        0.0691
     48 H           6.9343   -2.7354    0.0000 H       1  UNL1        0.2921
     49 H           2.8665    1.2175    0.0000 H       1  UNL1        0.0691
     50 H          15.3366   -0.5396    0.0000 H       1  UNL1        0.0274
     51 H          15.9590    0.0780    0.0000 H       1  UNL1        0.0274
     52 H          14.3805    1.2601    0.0000 H       1  UNL1        0.0274
     53 H          13.5344    1.4903    0.0000 H       1  UNL1        0.0274
     54 H          13.3042    0.6443    0.0000 H       1  UNL1        0.0274
     55 H          15.3414    0.7004    0.0000 H       1  UNL1        0.0274
     56 H           3.7865    2.7354    0.0000 H       1  UNL1        0.2922
     57 H           2.0000   -0.3316    0.0000 H       1  UNL1        0.2921
@<TRIPOS>BOND
     1     1     7    1
     2     1    13    1
     3     2     9    1
     4     2    23    1
     5     3    19    1
     6     3    48    1
     7     4    21    2
     8     5    25    1
     9     5    56    1
    10     6    28    1
    11     6    57    1
    12     7     8    1
    13     7    10    1
    14     7    14    1
    15     8    15    1
    16     8    32    1
    17     8    33    1
    18     9    11    1
    19     9    16    1
    20     9    34    1
    21    10    17    2
    22    10    35    1
    23    11    18   ar
    24    11    19   ar
    25    12    13   ar
    26    12    17    1
    27    12    18   ar
    28    13    20   ar
    29    14    36    1
    30    14    37    1
    31    14    38    1
    32    15    24    1
    33    15    39    1
    34    15    40    1
    35    16    21    1
    36    16    41    1
    37    16    42    1
    38    17    43    1
    39    18    44    1
    40    19    20   ar
    41    20    45    1
    42    21    22    1
    43    22    23   ar
    44    22    25   ar
    45    23    26   ar
    46    24    27    2
    47    24    46    1
    48    25    29   ar
    49    26    28   ar
    50    26    47    1
    51    27    30    1
    52    27    31    1
    53    28    29   ar
    54    29    49    1
    55    30    50    1
    56    30    51    1
    57    30    55    1
    58    31    52    1
    59    31    53    1
    60    31    54    1
