@<TRIPOS>MOLECULE
IMPHY002991
 79 80 0 0 0
SMALL
GASTEIGER

@<TRIPOS>ATOM
      1 O           5.0820   -0.3106    0.0000 O.3     1  UNL1       -0.3708
      2 O           5.0250    1.7772    0.0000 O.3     1  UNL1       -0.3892
      3 O           8.4891    2.7772    0.0000 O.3     1  UNL1       -0.3892
      4 O           6.7570    4.7772    0.0000 O.3     1  UNL1       -0.3892
      5 O           3.4466   -5.4113    0.0000 O.3     1  UNL1       -0.3915
      6 O           3.7601   -8.7772    0.0000 O.3     1  UNL1       -0.4542
      7 O           5.5202   -8.4984    0.0000 O.2     1  UNL1       -0.2453
      8 C           5.8910    0.2772    0.0000 C.3     1  UNL1        0.0849
      9 C           5.3910   -1.2616    0.0000 C.3     1  UNL1        0.0592
     10 C           6.7000   -0.3106    0.0000 C.3     1  UNL1       -0.0218
     11 C           6.3910   -1.2616    0.0000 C.3     1  UNL1       -0.0242
     12 C           5.8910    1.2772    0.0000 C.3     1  UNL1        0.0814
     13 C           4.8032   -2.0707    0.0000 C.3     1  UNL1       -0.0266
     14 C           6.7570    1.7772    0.0000 C.3     1  UNL1       -0.0220
     15 C           5.2100   -2.9842    0.0000 C.3     1  UNL1       -0.0506
     16 C           6.7570    2.7772    0.0000 C.3     1  UNL1       -0.0220
     17 C           7.6231    3.2772    0.0000 C.3     1  UNL1        0.0811
     18 C           4.6222   -3.7932    0.0000 C.3     1  UNL1       -0.0506
     19 C           7.6231    4.2772    0.0000 C.3     1  UNL1        0.0811
     20 C           5.0289   -4.7068    0.0000 C.3     1  UNL1       -0.0265
     21 C           8.4891    4.7772    0.0000 C.3     1  UNL1       -0.0244
     22 C           4.4411   -5.5158    0.0000 C.3     1  UNL1        0.0594
     23 C           8.4891    5.7772    0.0000 C.3     1  UNL1       -0.0506
     24 C           4.8479   -6.4293    0.0000 C.3     1  UNL1        0.0050
     25 C           9.3551    6.2772    0.0000 C.3     1  UNL1       -0.0530
     26 C           9.3551    7.2772    0.0000 C.3     1  UNL1       -0.0533
     27 C           4.2601   -7.2384    0.0000 C.2     1  UNL1        0.0385
     28 C          10.2211    7.7772    0.0000 C.3     1  UNL1       -0.0559
     29 C           3.2601   -7.2384    0.0000 C.2     1  UNL1       -0.0342
     30 C           2.9511   -8.1894    0.0000 C.3     1  UNL1        0.1195
     31 C           4.5691   -8.1894    0.0000 C.2     1  UNL1        0.3356
     32 C          10.2211    8.7772    0.0000 C.3     1  UNL1       -0.0653
     33 C           2.0000   -8.4984    0.0000 C.3     1  UNL1       -0.0240
     34 H           5.1336    0.6631    0.0000 H       1  UNL1        0.0622
     35 H           4.5515   -1.1287    0.0000 H       1  UNL1        0.0596
     36 H           7.2664   -0.5628    0.0000 H       1  UNL1        0.0292
     37 H           7.0100    0.2263    0.0000 H       1  UNL1        0.0292
     38 H           6.3262   -1.8782    0.0000 H       1  UNL1        0.0291
     39 H           6.9975   -1.3906    0.0000 H       1  UNL1        0.0291
     40 H           5.8910    2.1272    0.0000 H       1  UNL1        0.0619
     41 H           4.3725   -1.6247    0.0000 H       1  UNL1        0.0290
     42 H           4.2892   -2.4174    0.0000 H       1  UNL1        0.0290
     43 H           6.9691    1.1946    0.0000 H       1  UNL1        0.0292
     44 H           7.3676    1.8849    0.0000 H       1  UNL1        0.0292
     45 H           5.6406   -3.4302    0.0000 H       1  UNL1        0.0266
     46 H           5.7240   -2.6375    0.0000 H       1  UNL1        0.0266
     47 H           6.5450    3.3598    0.0000 H       1  UNL1        0.0292
     48 H           6.1464    2.6695    0.0000 H       1  UNL1        0.0292
     49 H           8.3592    3.7022    0.0000 H       1  UNL1        0.0619
     50 H           4.1915   -3.3472    0.0000 H       1  UNL1        0.0266
     51 H           4.1082   -4.1399    0.0000 H       1  UNL1        0.0266
     52 H           6.8869    3.8522    0.0000 H       1  UNL1        0.0619
     53 H           5.4596   -5.1528    0.0000 H       1  UNL1        0.0290
     54 H           5.5429   -4.3601    0.0000 H       1  UNL1        0.0290
     55 H           5.0250    2.3972    0.0000 H       1  UNL1        0.2099
     56 H           8.7011    4.1946    0.0000 H       1  UNL1        0.0291
     57 H           9.0997    4.8849    0.0000 H       1  UNL1        0.0291
     58 H           4.0954   -4.7393    0.0000 H       1  UNL1        0.0596
     59 H           8.2770    6.3598    0.0000 H       1  UNL1        0.0266
     60 H           7.8785    5.6695    0.0000 H       1  UNL1        0.0266
     61 H           5.2786   -6.8753    0.0000 H       1  UNL1        0.0340
     62 H           5.3619   -6.0826    0.0000 H       1  UNL1        0.0340
     63 H           9.0260    3.0872    0.0000 H       1  UNL1        0.2099
     64 H           9.5672    5.6946    0.0000 H       1  UNL1        0.0265
     65 H           9.9657    6.3849    0.0000 H       1  UNL1        0.0265
     66 H           6.7570    5.3972    0.0000 H       1  UNL1        0.2099
     67 H           9.1430    7.8598    0.0000 H       1  UNL1        0.0265
     68 H           8.7445    7.1695    0.0000 H       1  UNL1        0.0265
     69 H           3.1944   -4.8449    0.0000 H       1  UNL1        0.2098
     70 H          10.4332    7.1946    0.0000 H       1  UNL1        0.0263
     71 H          10.8317    7.8849    0.0000 H       1  UNL1        0.0263
     72 H           2.8956   -6.7368    0.0000 H       1  UNL1        0.0613
     73 H           2.8181   -9.0289    0.0000 H       1  UNL1        0.0777
     74 H          10.8411    8.7772    0.0000 H       1  UNL1        0.0230
     75 H          10.2211    9.3972    0.0000 H       1  UNL1        0.0230
     76 H           9.6011    8.7772    0.0000 H       1  UNL1        0.0230
     77 H           1.8084   -7.9088    0.0000 H       1  UNL1        0.0268
     78 H           1.4103   -8.6900    0.0000 H       1  UNL1        0.0268
     79 H           2.1916   -9.0881    0.0000 H       1  UNL1        0.0268
@<TRIPOS>BOND
     1     1     8    1
     2     1     9    1
     3     2    12    1
     4     2    55    1
     5     3    17    1
     6     3    63    1
     7     4    19    1
     8     4    66    1
     9     5    22    1
    10     5    69    1
    11     6    30    1
    12     6    31    1
    13     7    31    2
    14     8    10    1
    15     8    12    1
    16     8    34    1
    17     9    11    1
    18     9    13    1
    19     9    35    1
    20    10    11    1
    21    10    36    1
    22    10    37    1
    23    11    38    1
    24    11    39    1
    25    12    14    1
    26    12    40    1
    27    13    15    1
    28    13    41    1
    29    13    42    1
    30    14    16    1
    31    14    43    1
    32    14    44    1
    33    15    18    1
    34    15    45    1
    35    15    46    1
    36    16    17    1
    37    16    47    1
    38    16    48    1
    39    17    19    1
    40    17    49    1
    41    18    20    1
    42    18    50    1
    43    18    51    1
    44    19    21    1
    45    19    52    1
    46    20    22    1
    47    20    53    1
    48    20    54    1
    49    21    23    1
    50    21    56    1
    51    21    57    1
    52    22    24    1
    53    22    58    1
    54    23    25    1
    55    23    59    1
    56    23    60    1
    57    24    27    1
    58    24    61    1
    59    24    62    1
    60    25    26    1
    61    25    64    1
    62    25    65    1
    63    26    28    1
    64    26    67    1
    65    26    68    1
    66    27    29    2
    67    27    31    1
    68    28    32    1
    69    28    70    1
    70    28    71    1
    71    29    30    1
    72    29    72    1
    73    30    33    1
    74    30    73    1
    75    32    74    1
    76    32    75    1
    77    32    76    1
    78    33    77    1
    79    33    78    1
    80    33    79    1
