@<TRIPOS>MOLECULE
IMPHY004079
 14 14 0 0 0
SMALL
GASTEIGER

@<TRIPOS>ATOM
      1 O           4.2690    1.3450    0.0000 O.3     1  UNL1       -0.5033
      2 O           2.5369    0.3450    0.0000 O.3     1  UNL1       -0.5033
      3 C           4.2690    0.3450    0.0000 C.ar    1  UNL1        0.1582
      4 C           3.4030   -0.1550    0.0000 C.ar    1  UNL1        0.1582
      5 C           5.1350   -0.1550    0.0000 C.ar    1  UNL1       -0.0165
      6 C           3.4030   -1.1550    0.0000 C.ar    1  UNL1       -0.0165
      7 C           5.1350   -1.1550    0.0000 C.ar    1  UNL1       -0.0581
      8 C           4.2690   -1.6550    0.0000 C.ar    1  UNL1       -0.0581
      9 H           5.6720    0.1550    0.0000 H       1  UNL1        0.0655
     10 H           2.8660   -1.4650    0.0000 H       1  UNL1        0.0655
     11 H           5.6720   -1.4650    0.0000 H       1  UNL1        0.0619
     12 H           4.2690   -2.2750    0.0000 H       1  UNL1        0.0619
     13 H           4.8059    1.6550    0.0000 H       1  UNL1        0.2923
     14 H           2.0000    0.0350    0.0000 H       1  UNL1        0.2923
@<TRIPOS>BOND
     1     1     3    1
     2     1    13    1
     3     2     4    1
     4     2    14    1
     5     3     4   ar
     6     3     5   ar
     7     4     6   ar
     8     5     7   ar
     9     5     9    1
    10     6     8   ar
    11     6    10    1
    12     7     8   ar
    13     7    11    1
    14     8    12    1
