@<TRIPOS>MOLECULE
IMPHY012990
 43 45 0 0 0
SMALL
GASTEIGER

@<TRIPOS>ATOM
      1 O           4.3198    2.7772    0.0000 O.3     1  UNL1       -0.4908
      2 O           2.5381    1.7668    0.0000 O.3     1  UNL1       -0.5033
      3 N           3.4712   -2.8019    0.0000 N.3     1  UNL1       -0.3080
      4 C           5.2022    0.2426    0.0000 C.ar    1  UNL1       -0.0103
      5 C           4.3083   -0.2920    0.0000 C.ar    1  UNL1       -0.0348
      6 C           5.2022    1.2426    0.0000 C.ar    1  UNL1        0.0354
      7 C           4.3198   -1.2920    0.0000 C.3     1  UNL1       -0.0142
      8 C           6.0682    1.7426    0.0000 C.ar    1  UNL1       -0.0066
      9 C           3.4597   -1.8020    0.0000 C.3     1  UNL1        0.0023
     10 C           4.3083    1.7773    0.0000 C.ar    1  UNL1        0.1695
     11 C           6.9343    1.2426    0.0000 C.ar    1  UNL1       -0.0172
     12 C           3.4022    0.2218    0.0000 C.ar    1  UNL1       -0.0127
     13 C           6.0682   -0.2574    0.0000 C.ar    1  UNL1       -0.0531
     14 C           3.4022    1.2634    0.0000 C.ar    1  UNL1        0.1594
     15 C           6.9343    0.2426    0.0000 C.ar    1  UNL1       -0.0534
     16 C           6.0522    2.7841    0.0000 C.ar    1  UNL1       -0.0533
     17 C           7.8443    1.7495    0.0000 C.ar    1  UNL1       -0.0540
     18 C           6.9502    3.3119    0.0000 C.ar    1  UNL1       -0.0611
     19 C           2.6110   -3.3119    0.0000 C.3     1  UNL1       -0.0130
     20 C           4.3430   -3.2918    0.0000 C.3     1  UNL1       -0.0130
     21 C           7.8523    2.7911    0.0000 C.ar    1  UNL1       -0.0612
     22 C           3.4597    3.2872    0.0000 C.3     1  UNL1        0.0790
     23 H           4.5386   -1.8721    0.0000 H       1  UNL1        0.0326
     24 H           4.9291   -1.1773    0.0000 H       1  UNL1        0.0326
     25 H           3.2409   -1.2218    0.0000 H       1  UNL1        0.0429
     26 H           2.8504   -1.9167    0.0000 H       1  UNL1        0.0429
     27 H           2.8665   -0.0903    0.0000 H       1  UNL1        0.0658
     28 H           6.0682   -0.8774    0.0000 H       1  UNL1        0.0624
     29 H           7.4712   -0.0674    0.0000 H       1  UNL1        0.0624
     30 H           5.5117    3.0879    0.0000 H       1  UNL1        0.0624
     31 H           8.3776    1.4333    0.0000 H       1  UNL1        0.0624
     32 H           6.9478    3.9319    0.0000 H       1  UNL1        0.0618
     33 H           2.2948   -2.7786    0.0000 H       1  UNL1        0.0391
     34 H           2.0777   -3.6281    0.0000 H       1  UNL1        0.0391
     35 H           2.9272   -3.8452    0.0000 H       1  UNL1        0.0391
     36 H           4.0392   -3.8323    0.0000 H       1  UNL1        0.0391
     37 H           4.8835   -3.5956    0.0000 H       1  UNL1        0.0391
     38 H           4.6468   -2.7514    0.0000 H       1  UNL1        0.0391
     39 H           8.3904    3.0990    0.0000 H       1  UNL1        0.0618
     40 H           2.0000    1.4588    0.0000 H       1  UNL1        0.2923
     41 H           3.7758    3.8205    0.0000 H       1  UNL1        0.0660
     42 H           2.9263    3.6034    0.0000 H       1  UNL1        0.0660
     43 H           3.1435    2.7539    0.0000 H       1  UNL1        0.0660
@<TRIPOS>BOND
     1     1    10    1
     2     1    22    1
     3     2    14    1
     4     2    40    1
     5     3     9    1
     6     3    19    1
     7     3    20    1
     8     4     5   ar
     9     4     6   ar
    10     4    13   ar
    11     5     7    1
    12     5    12   ar
    13     6     8   ar
    14     6    10   ar
    15     7     9    1
    16     7    23    1
    17     7    24    1
    18     8    11   ar
    19     8    16   ar
    20     9    25    1
    21     9    26    1
    22    10    14   ar
    23    11    15   ar
    24    11    17   ar
    25    12    14   ar
    26    12    27    1
    27    13    15   ar
    28    13    28    1
    29    15    29    1
    30    16    18   ar
    31    16    30    1
    32    17    21   ar
    33    17    31    1
    34    18    21   ar
    35    18    32    1
    36    19    33    1
    37    19    34    1
    38    19    35    1
    39    20    36    1
    40    20    37    1
    41    20    38    1
    42    21    39    1
    43    22    41    1
    44    22    42    1
    45    22    43    1
