@<TRIPOS>MOLECULE
IMPHY015531
 23 22 0 0 0
SMALL
GASTEIGER

@<TRIPOS>ATOM
      1 O           4.5981    0.7500    0.0000 O.3     1  UNL1       -0.4646
      2 O           3.7320   -0.7500    0.0000 O.2     1  UNL1       -0.2509
      3 C           6.3301    0.7500    0.0000 C.3     1  UNL1       -0.0188
      4 C           7.1962    0.2500    0.0000 C.3     1  UNL1       -0.0528
      5 C           5.4641    0.2500    0.0000 C.3     1  UNL1        0.0924
      6 C           8.0622    0.7500    0.0000 C.3     1  UNL1       -0.0652
      7 C           2.8660    0.7500    0.0000 C.3     1  UNL1        0.0421
      8 C           3.7320    0.2500    0.0000 C.2     1  UNL1        0.3068
      9 C           2.0000    0.2500    0.0000 C.3     1  UNL1       -0.0552
     10 H           6.7287    1.2250    0.0000 H       1  UNL1        0.0298
     11 H           5.9316    1.2250    0.0000 H       1  UNL1        0.0298
     12 H           6.7976   -0.2249    0.0000 H       1  UNL1        0.0264
     13 H           7.5947   -0.2249    0.0000 H       1  UNL1        0.0264
     14 H           5.0656   -0.2249    0.0000 H       1  UNL1        0.0697
     15 H           5.8626   -0.2249    0.0000 H       1  UNL1        0.0697
     16 H           8.3722    0.2131    0.0000 H       1  UNL1        0.0230
     17 H           8.5991    1.0600    0.0000 H       1  UNL1        0.0230
     18 H           7.7522    1.2869    0.0000 H       1  UNL1        0.0230
     19 H           3.2646    1.2250    0.0000 H       1  UNL1        0.0375
     20 H           2.4675    1.2250    0.0000 H       1  UNL1        0.0375
     21 H           1.6900    0.7869    0.0000 H       1  UNL1        0.0235
     22 H           1.4631   -0.0600    0.0000 H       1  UNL1        0.0235
     23 H           2.3100   -0.2869    0.0000 H       1  UNL1        0.0235
@<TRIPOS>BOND
     1     1     5    1
     2     1     8    1
     3     2     8    2
     4     3     4    1
     5     3     5    1
     6     3    10    1
     7     3    11    1
     8     4     6    1
     9     4    12    1
    10     4    13    1
    11     5    14    1
    12     5    15    1
    13     6    16    1
    14     6    17    1
    15     6    18    1
    16     7     8    1
    17     7     9    1
    18     7    19    1
    19     7    20    1
    20     9    21    1
    21     9    22    1
    22     9    23    1
