@<TRIPOS>MOLECULE
IMPHY008791
 79 83 0 0 0
SMALL
GASTEIGER

@<TRIPOS>ATOM
      1 O           2.0000   -1.9012    0.0000 O.2     1  UNL1       -0.2968
      2 C           7.3931    1.1511    0.0000 C.3     1  UNL1       -0.0194
      3 C           8.2870    1.6858    0.0000 C.3     1  UNL1       -0.0292
      4 C           9.1931    1.1719    0.0000 C.3     1  UNL1       -0.0256
      5 C           7.3931    0.1511    0.0000 C.3     1  UNL1       -0.0051
      6 C           9.9554    1.8727    0.0000 C.3     1  UNL1       -0.0330
      7 C           9.1931    0.1303    0.0000 C.3     1  UNL1       -0.0463
      8 C           8.2870   -0.3835    0.0000 C.3     1  UNL1       -0.0429
      9 C           8.4971    2.6997    0.0000 C.3     1  UNL1       -0.0489
     10 C           6.5271    1.6511    0.0000 C.3     1  UNL1       -0.0428
     11 C           6.5271   -0.3489    0.0000 C.2     1  UNL1       -0.0633
     12 C           9.5262    2.8150    0.0000 C.3     1  UNL1       -0.0492
     13 C           5.6610    0.1511    0.0000 C.2     1  UNL1       -0.0635
     14 C           4.7510   -0.3557    0.0000 C.3     1  UNL1       -0.0067
     15 C           5.6610    1.1511    0.0000 C.3     1  UNL1       -0.0304
     16 C           7.3931    2.1511    0.0000 C.3     1  UNL1       -0.0585
     17 C          10.0629    0.6786    0.0000 C.3     1  UNL1       -0.0590
     18 C           4.7430   -1.3973    0.0000 C.3     1  UNL1       -0.0198
     19 C           7.3931   -0.8489    0.0000 C.3     1  UNL1       -0.0553
     20 C          10.9355    1.6740    0.0000 C.3     1  UNL1       -0.0434
     21 C           6.5431   -1.3904    0.0000 C.3     1  UNL1       -0.0306
     22 C           5.6451   -1.9181    0.0000 C.3     1  UNL1       -0.0448
     23 C           3.8076   -1.9470    0.0000 C.3     1  UNL1        0.0270
     24 C           3.8242    0.2084    0.0000 C.3     1  UNL1       -0.0369
     25 C           4.7587    0.6442    0.0000 C.3     1  UNL1       -0.0555
     26 C           2.8763   -0.3196    0.0000 C.3     1  UNL1        0.0072
     27 C          11.5976    2.4234    0.0000 C.3     1  UNL1       -0.0624
     28 C          11.2535    0.7259    0.0000 C.3     1  UNL1       -0.0624
     29 C           2.8680   -1.4046    0.0000 C.2     1  UNL1        0.1392
     30 C           3.3109   -2.8150    0.0000 C.3     1  UNL1       -0.0528
     31 C           4.3109   -2.8111    0.0000 C.3     1  UNL1       -0.0528
     32 H           9.0613    2.0365    0.0000 H       1  UNL1        0.0312
     33 H          10.3412    2.3580    0.0000 H       1  UNL1        0.0309
     34 H           9.4022   -0.4534    0.0000 H       1  UNL1        0.0271
     35 H           9.8040    0.2364    0.0000 H       1  UNL1        0.0271
     36 H           7.8824   -0.8533    0.0000 H       1  UNL1        0.0274
     37 H           8.6806   -0.8626    0.0000 H       1  UNL1        0.0274
     38 H           8.4932    3.3197    0.0000 H       1  UNL1        0.0268
     39 H           7.8802    2.7610    0.0000 H       1  UNL1        0.0268
     40 H           6.9256    2.1261    0.0000 H       1  UNL1        0.0274
     41 H           6.1285    2.1261    0.0000 H       1  UNL1        0.0274
     42 H          10.1143    3.0113    0.0000 H       1  UNL1        0.0268
     43 H           9.3928    3.4205    0.0000 H       1  UNL1        0.0268
     44 H           5.4490    1.7337    0.0000 H       1  UNL1        0.0310
     45 H           5.0504    1.0435    0.0000 H       1  UNL1        0.0310
     46 H           8.0131    2.1511    0.0000 H       1  UNL1        0.0235
     47 H           7.3931    2.7711    0.0000 H       1  UNL1        0.0235
     48 H           6.7731    2.1511    0.0000 H       1  UNL1        0.0235
     49 H           9.7571    0.1393    0.0000 H       1  UNL1        0.0235
     50 H          10.6023    0.3728    0.0000 H       1  UNL1        0.0235
     51 H          10.3688    1.2179    0.0000 H       1  UNL1        0.0235
     52 H           4.7463   -2.2473    0.0000 H       1  UNL1        0.0318
     53 H           6.7731   -0.8489    0.0000 H       1  UNL1        0.0238
     54 H           7.3931   -1.4689    0.0000 H       1  UNL1        0.0238
     55 H           8.0131   -0.8489    0.0000 H       1  UNL1        0.0238
     56 H          10.5250    1.2094    0.0000 H       1  UNL1        0.0298
     57 H           6.7612   -1.9708    0.0000 H       1  UNL1        0.0310
     58 H           7.1523   -1.2749    0.0000 H       1  UNL1        0.0310
     59 H           5.2478   -2.3941    0.0000 H       1  UNL1        0.0271
     60 H           6.0460   -2.3910    0.0000 H       1  UNL1        0.0271
     61 H           4.2324    0.6750    0.0000 H       1  UNL1        0.0278
     62 H           3.4343    0.6904    0.0000 H       1  UNL1        0.0278
     63 H           5.3787    0.6395    0.0000 H       1  UNL1        0.0238
     64 H           4.7635    1.2642    0.0000 H       1  UNL1        0.0238
     65 H           4.1388    0.6490    0.0000 H       1  UNL1        0.0238
     66 H           2.6718    0.2657    0.0000 H       1  UNL1        0.0342
     67 H           2.2647   -0.4210    0.0000 H       1  UNL1        0.0342
     68 H          12.0622    2.0130    0.0000 H       1  UNL1        0.0232
     69 H          12.0081    2.8881    0.0000 H       1  UNL1        0.0232
     70 H          11.1329    2.8340    0.0000 H       1  UNL1        0.0232
     71 H          10.6656    0.5288    0.0000 H       1  UNL1        0.0232
     72 H          11.4506    0.1381    0.0000 H       1  UNL1        0.0232
     73 H          11.8413    0.9231    0.0000 H       1  UNL1        0.0232
     74 H           2.7728   -2.5071    0.0000 H       1  UNL1        0.0239
     75 H           3.0030   -3.3531    0.0000 H       1  UNL1        0.0239
     76 H           3.8490   -3.1229    0.0000 H       1  UNL1        0.0239
     77 H           3.7752   -3.1232    0.0000 H       1  UNL1        0.0239
     78 H           4.6230   -3.3469    0.0000 H       1  UNL1        0.0239
     79 H           4.8466   -2.4991    0.0000 H       1  UNL1        0.0239
@<TRIPOS>BOND
     1     1    29    2
     2     2     3    1
     3     2     5    1
     4     2    10    1
     5     2    16    1
     6     3     4    1
     7     3     9    1
     8     3    32    1
     9     4     6    1
    10     4     7    1
    11     4    17    1
    12     5     8    1
    13     5    11    1
    14     5    19    1
    15     6    12    1
    16     6    20    1
    17     6    33    1
    18     7     8    1
    19     7    34    1
    20     7    35    1
    21     8    36    1
    22     8    37    1
    23     9    12    1
    24     9    38    1
    25     9    39    1
    26    10    15    1
    27    10    40    1
    28    10    41    1
    29    11    13    2
    30    11    21    1
    31    12    42    1
    32    12    43    1
    33    13    14    1
    34    13    15    1
    35    14    18    1
    36    14    24    1
    37    14    25    1
    38    15    44    1
    39    15    45    1
    40    16    46    1
    41    16    47    1
    42    16    48    1
    43    17    49    1
    44    17    50    1
    45    17    51    1
    46    18    22    1
    47    18    23    1
    48    18    52    1
    49    19    53    1
    50    19    54    1
    51    19    55    1
    52    20    27    1
    53    20    28    1
    54    20    56    1
    55    21    22    1
    56    21    57    1
    57    21    58    1
    58    22    59    1
    59    22    60    1
    60    23    29    1
    61    23    30    1
    62    23    31    1
    63    24    26    1
    64    24    61    1
    65    24    62    1
    66    25    63    1
    67    25    64    1
    68    25    65    1
    69    26    29    1
    70    26    66    1
    71    26    67    1
    72    27    68    1
    73    27    69    1
    74    27    70    1
    75    28    71    1
    76    28    72    1
    77    28    73    1
    78    30    74    1
    79    30    75    1
    80    30    76    1
    81    31    77    1
    82    31    78    1
    83    31    79    1
