@<TRIPOS>MOLECULE
IMPHY008478
 39 40 0 0 0
SMALL
GASTEIGER

@<TRIPOS>ATOM
      1 O           6.3580   -0.2847    0.0000 O.2     1  UNL1       -0.4216
      2 O           2.8660   -0.2500    0.0000 O.3     1  UNL1       -0.4946
      3 O           4.5981    2.7500    0.0000 O.3     1  UNL1       -0.4943
      4 O           2.8660   -1.2500    0.0000 O.2     1  UNL1       -0.2968
      5 O           8.1282   -0.2742    0.0000 O.2     1  UNL1       -0.2452
      6 C           4.5981   -0.2500    0.0000 C.ar    1  UNL1        0.0445
      7 C           4.5981   -1.2500    0.0000 C.3     1  UNL1        0.0382
      8 C           3.7320   -2.7500    0.0000 C.3     1  UNL1        0.0122
      9 C           5.4641    0.2500    0.0000 C.ar    1  UNL1        0.1496
     10 C           3.7320   -1.7500    0.0000 C.2     1  UNL1        0.1404
     11 C           5.4641    1.2500    0.0000 C.ar    1  UNL1        0.0597
     12 C           3.7320    0.2500    0.0000 C.ar    1  UNL1        0.1307
     13 C           4.5981    1.7500    0.0000 C.ar    1  UNL1        0.1342
     14 C           3.7320    1.2500    0.0000 C.ar    1  UNL1        0.0229
     15 C           2.8660   -3.2500    0.0000 C.3     1  UNL1       -0.0559
     16 C           4.5981   -3.2500    0.0000 C.3     1  UNL1       -0.0559
     17 C           6.3580    1.7847    0.0000 C.ar    1  UNL1       -0.0408
     18 C           7.2641    1.2708    0.0000 C.ar    1  UNL1        0.0237
     19 C           7.2641    0.2292    0.0000 C.ar    1  UNL1        0.3372
     20 C           2.0000    0.2500    0.0000 C.3     1  UNL1        0.0788
     21 C           3.7320    3.2500    0.0000 C.3     1  UNL1        0.0788
     22 H           4.8101   -1.8326    0.0000 H       1  UNL1        0.0392
     23 H           5.2087   -1.1423    0.0000 H       1  UNL1        0.0392
     24 H           3.7320   -3.3700    0.0000 H       1  UNL1        0.0372
     25 H           3.1951    1.5600    0.0000 H       1  UNL1        0.0691
     26 H           4.2881   -3.7869    0.0000 H       1  UNL1        0.0236
     27 H           2.5560   -2.7131    0.0000 H       1  UNL1        0.0236
     28 H           2.3291   -3.5600    0.0000 H       1  UNL1        0.0236
     29 H           3.1760   -3.7869    0.0000 H       1  UNL1        0.0236
     30 H           5.1350   -3.5600    0.0000 H       1  UNL1        0.0236
     31 H           4.9081   -2.7131    0.0000 H       1  UNL1        0.0236
     32 H           6.3509    2.4046    0.0000 H       1  UNL1        0.0628
     33 H           7.7998    1.5829    0.0000 H       1  UNL1        0.0689
     34 H           2.3100    0.7869    0.0000 H       1  UNL1        0.0660
     35 H           1.4631    0.5600    0.0000 H       1  UNL1        0.0660
     36 H           1.6900   -0.2869    0.0000 H       1  UNL1        0.0660
     37 H           4.0420    3.7869    0.0000 H       1  UNL1        0.0660
     38 H           3.1951    3.5600    0.0000 H       1  UNL1        0.0660
     39 H           3.4220    2.7131    0.0000 H       1  UNL1        0.0660
@<TRIPOS>BOND
     1     1     9   ar
     2     1    19   ar
     3     2    12    1
     4     2    20    1
     5     3    13    1
     6     3    21    1
     7     4    10    2
     8     5    19    2
     9     6     7    1
    10     6     9   ar
    11     6    12   ar
    12     7    10    1
    13     7    22    1
    14     7    23    1
    15     8    10    1
    16     8    15    1
    17     8    16    1
    18     8    24    1
    19     9    11   ar
    20    11    13   ar
    21    11    17   ar
    22    12    14   ar
    23    13    14   ar
    24    14    25    1
    25    15    27    1
    26    15    28    1
    27    15    29    1
    28    16    26    1
    29    16    30    1
    30    16    31    1
    31    17    18   ar
    32    17    32    1
    33    18    19   ar
    34    18    33    1
    35    20    34    1
    36    20    35    1
    37    20    36    1
    38    21    37    1
    39    21    38    1
    40    21    39    1
