@<TRIPOS>MOLECULE
IMPHY008580
 41 43 0 0 0
SMALL
GASTEIGER

@<TRIPOS>ATOM
      1 O           6.0486   -0.1405    0.0000 O.3     1  UNL1       -0.3704
      2 O           6.6244    2.3822    0.0000 O.3     1  UNL1       -0.3888
      3 O           3.4030    0.2663    0.0000 O.3     1  UNL1       -0.3846
      4 O           2.2670    3.9373    0.0000 O.3     1  UNL1       -0.5068
      5 O           2.5369   -3.2338    0.0000 O.3     1  UNL1       -0.5033
      6 O           4.2690   -4.2338    0.0000 O.3     1  UNL1       -0.5033
      7 C           5.2395    1.2608    0.0000 C.3     1  UNL1        0.0412
      8 C           5.1350    0.2663    0.0000 C.3     1  UNL1        0.0979
      9 C           6.2177    1.4687    0.0000 C.3     1  UNL1        0.0877
     10 C           6.7177    0.6027    0.0000 C.3     1  UNL1        0.0747
     11 C           4.2690   -0.2337    0.0000 C.3     1  UNL1        0.1070
     12 C           4.4964    1.9299    0.0000 C.ar    1  UNL1       -0.0390
     13 C           4.2690   -1.2337    0.0000 C.ar    1  UNL1       -0.0130
     14 C           4.7043    2.9080    0.0000 C.ar    1  UNL1       -0.0547
     15 C           3.5453    1.6209    0.0000 C.ar    1  UNL1       -0.0547
     16 C           3.4030   -1.7338    0.0000 C.ar    1  UNL1       -0.0108
     17 C           5.1350   -1.7338    0.0000 C.ar    1  UNL1       -0.0524
     18 C           3.9612    3.5772    0.0000 C.ar    1  UNL1       -0.0199
     19 C           2.8022    2.2900    0.0000 C.ar    1  UNL1       -0.0199
     20 C           3.0101    3.2682    0.0000 C.ar    1  UNL1        0.1169
     21 C           3.4030   -2.7338    0.0000 C.ar    1  UNL1        0.1586
     22 C           5.1350   -2.7338    0.0000 C.ar    1  UNL1       -0.0162
     23 C           4.2690   -3.2338    0.0000 C.ar    1  UNL1        0.1582
     24 H           5.4000    1.8596    0.0000 H       1  UNL1        0.0401
     25 H           5.1795   -0.5826    0.0000 H       1  UNL1        0.0632
     26 H           6.8368    1.5011    0.0000 H       1  UNL1        0.0623
     27 H           7.1326    0.1419    0.0000 H       1  UNL1        0.0586
     28 H           7.2193    0.9671    0.0000 H       1  UNL1        0.0586
     29 H           4.2690    0.3863    0.0000 H       1  UNL1        0.0670
     30 H           7.2410    2.4470    0.0000 H       1  UNL1        0.2099
     31 H           5.2940    3.0996    0.0000 H       1  UNL1        0.0622
     32 H           3.4164    1.0144    0.0000 H       1  UNL1        0.0622
     33 H           2.8660   -0.0437    0.0000 H       1  UNL1        0.2103
     34 H           2.8660   -1.4238    0.0000 H       1  UNL1        0.0659
     35 H           5.6720   -1.4238    0.0000 H       1  UNL1        0.0622
     36 H           4.0901    4.1836    0.0000 H       1  UNL1        0.0654
     37 H           2.2125    2.0984    0.0000 H       1  UNL1        0.0654
     38 H           5.6720   -3.0438    0.0000 H       1  UNL1        0.0655
     39 H           2.3959    4.5438    0.0000 H       1  UNL1        0.2921
     40 H           2.0000   -2.9238    0.0000 H       1  UNL1        0.2923
     41 H           4.8059   -4.5438    0.0000 H       1  UNL1        0.2923
@<TRIPOS>BOND
     1     1     8    1
     2     1    10    1
     3     9     2    1
     4     2    30    1
     5    11     3    1
     6     3    33    1
     7     4    20    1
     8     4    39    1
     9     5    21    1
    10     5    40    1
    11     6    23    1
    12     6    41    1
    13     7     8    1
    14     7     9    1
    15     7    12    1
    16     7    24    1
    17     8    11    1
    18     8    25    1
    19     9    10    1
    20     9    26    1
    21    10    27    1
    22    10    28    1
    23    11    13    1
    24    11    29    1
    25    12    14   ar
    26    12    15   ar
    27    13    16   ar
    28    13    17   ar
    29    14    18   ar
    30    14    31    1
    31    15    19   ar
    32    15    32    1
    33    16    21   ar
    34    16    34    1
    35    17    22   ar
    36    17    35    1
    37    18    20   ar
    38    18    36    1
    39    19    20   ar
    40    19    37    1
    41    21    23   ar
    42    22    23   ar
    43    22    38    1
