@<TRIPOS>MOLECULE
IMPHY002956
 37 39 0 0 0
SMALL
GASTEIGER

@<TRIPOS>ATOM
      1 O           6.0290   -1.3017    0.0000 O.2     1  UNL1       -0.4618
      2 O           4.2690    1.7329    0.0000 O.3     1  UNL1       -0.4905
      3 O           2.5369   -1.2671    0.0000 O.3     1  UNL1       -0.4912
      4 O           2.5369    0.7329    0.0000 O.3     1  UNL1       -0.5009
      5 O           6.0174    1.7675    0.0000 O.2     1  UNL1       -0.2863
      6 O          10.3914    2.2671    0.0000 O.3     1  UNL1       -0.5068
      7 C           5.1350    0.2329    0.0000 C.ar    1  UNL1        0.1099
      8 C           5.1350   -0.7671    0.0000 C.ar    1  UNL1        0.1457
      9 C           6.9350    0.2537    0.0000 C.ar    1  UNL1        0.0644
     10 C           6.0290    0.7676    0.0000 C.ar    1  UNL1        0.2038
     11 C           4.2690    0.7329    0.0000 C.ar    1  UNL1        0.1794
     12 C           7.7991    0.7571    0.0000 C.ar    1  UNL1       -0.0110
     13 C           4.2690   -1.2671    0.0000 C.ar    1  UNL1        0.0270
     14 C           3.4030    0.2329    0.0000 C.ar    1  UNL1        0.2020
     15 C           3.4030   -0.7671    0.0000 C.ar    1  UNL1        0.1685
     16 C           6.9350   -0.7879    0.0000 C.ar    1  UNL1        0.1038
     17 C           8.6671    0.2604    0.0000 C.ar    1  UNL1       -0.0504
     18 C           7.7953    1.7571    0.0000 C.ar    1  UNL1       -0.0504
     19 C           9.5312    0.7638    0.0000 C.ar    1  UNL1       -0.0196
     20 C           8.6594    2.2604    0.0000 C.ar    1  UNL1       -0.0196
     21 C           9.5273    1.7637    0.0000 C.ar    1  UNL1        0.1169
     22 C           3.4030    2.2329    0.0000 C.3     1  UNL1        0.0790
     23 C           2.5369   -2.2671    0.0000 C.3     1  UNL1        0.0790
     24 H           4.2690   -1.8871    0.0000 H       1  UNL1        0.0692
     25 H           7.4708   -1.1000    0.0000 H       1  UNL1        0.1037
     26 H           8.6694   -0.3596    0.0000 H       1  UNL1        0.0625
     27 H           7.2571    2.0650    0.0000 H       1  UNL1        0.0625
     28 H          10.0693    0.4558    0.0000 H       1  UNL1        0.0654
     29 H           8.6570    2.8804    0.0000 H       1  UNL1        0.0654
     30 H           2.0000    0.4229    0.0000 H       1  UNL1        0.2924
     31 H           3.7130    2.7699    0.0000 H       1  UNL1        0.0660
     32 H           2.8660    2.5429    0.0000 H       1  UNL1        0.0660
     33 H           3.0930    1.6960    0.0000 H       1  UNL1        0.0660
     34 H           1.9169   -2.2671    0.0000 H       1  UNL1        0.0660
     35 H           2.5369   -2.8871    0.0000 H       1  UNL1        0.0660
     36 H           3.1569   -2.2671    0.0000 H       1  UNL1        0.0660
     37 H          10.9295    1.9592    0.0000 H       1  UNL1        0.2921
@<TRIPOS>BOND
     1     1     8   ar
     2     1    16   ar
     3     2    11    1
     4     2    22    1
     5     3    15    1
     6     3    23    1
     7     4    14    1
     8     4    30    1
     9     5    10    2
    10     6    21    1
    11     6    37    1
    12     7     8   ar
    13     7    10   ar
    14     7    11   ar
    15     8    13   ar
    16     9    10   ar
    17     9    12    1
    18     9    16   ar
    19    11    14   ar
    20    12    17   ar
    21    12    18   ar
    22    13    15   ar
    23    13    24    1
    24    14    15   ar
    25    16    25    1
    26    17    19   ar
    27    17    26    1
    28    18    20   ar
    29    18    27    1
    30    19    21   ar
    31    19    28    1
    32    20    21   ar
    33    20    29    1
    34    22    31    1
    35    22    32    1
    36    22    33    1
    37    23    34    1
    38    23    35    1
    39    23    36    1
