@<TRIPOS>MOLECULE
IMPHY003288
 33 34 0 0 0
SMALL
GASTEIGER

@<TRIPOS>ATOM
      1 O           3.4030    1.6550    0.0000 O.3     1  UNL1       -0.3856
      2 O           2.5369   -1.8450    0.0000 O.3     1  UNL1       -0.5033
      3 O           4.2690   -2.8450    0.0000 O.3     1  UNL1       -0.5033
      4 N           5.1350    2.6550    0.0000 N.3     1  UNL1       -0.3106
      5 C           5.1350    1.6550    0.0000 C.3     1  UNL1        0.0378
      6 C           6.0010    1.1550    0.0000 C.3     1  UNL1       -0.0348
      7 C           6.8671    1.6550    0.0000 C.3     1  UNL1       -0.0504
      8 C           4.2690    1.1550    0.0000 C.3     1  UNL1        0.0956
      9 C           6.8671    2.6550    0.0000 C.3     1  UNL1       -0.0404
     10 C           6.0010    3.1550    0.0000 C.3     1  UNL1       -0.0038
     11 C           4.2690    0.1550    0.0000 C.ar    1  UNL1       -0.0140
     12 C           3.4030   -0.3450    0.0000 C.ar    1  UNL1       -0.0109
     13 C           5.1350   -0.3450    0.0000 C.ar    1  UNL1       -0.0524
     14 C           3.4030   -1.3450    0.0000 C.ar    1  UNL1        0.1586
     15 C           5.1350   -1.3450    0.0000 C.ar    1  UNL1       -0.0162
     16 C           4.2690   -1.8450    0.0000 C.ar    1  UNL1        0.1582
     17 H           4.3989    2.0800    0.0000 H       1  UNL1        0.0489
     18 H           5.6025    0.6801    0.0000 H       1  UNL1        0.0281
     19 H           6.3996    0.6801    0.0000 H       1  UNL1        0.0281
     20 H           7.0791    1.0724    0.0000 H       1  UNL1        0.0266
     21 H           7.4776    1.7627    0.0000 H       1  UNL1        0.0266
     22 H           4.8311    1.7750    0.0000 H       1  UNL1        0.0659
     23 H           7.4776    2.5473    0.0000 H       1  UNL1        0.0277
     24 H           7.0791    3.2376    0.0000 H       1  UNL1        0.0277
     25 H           6.3996    3.6300    0.0000 H       1  UNL1        0.0424
     26 H           5.6025    3.6300    0.0000 H       1  UNL1        0.0424
     27 H           4.5981    2.9650    0.0000 H       1  UNL1        0.1223
     28 H           2.8660    1.3450    0.0000 H       1  UNL1        0.2103
     29 H           2.8660   -0.0350    0.0000 H       1  UNL1        0.0659
     30 H           5.6720   -0.0350    0.0000 H       1  UNL1        0.0622
     31 H           5.6720   -1.6550    0.0000 H       1  UNL1        0.0655
     32 H           2.0000   -1.5350    0.0000 H       1  UNL1        0.2923
     33 H           4.8059   -3.1550    0.0000 H       1  UNL1        0.2923
@<TRIPOS>BOND
     1     8     1    1
     2     1    28    1
     3     2    14    1
     4     2    32    1
     5     3    16    1
     6     3    33    1
     7     4     5    1
     8     4    10    1
     9     4    27    1
    10     5     6    1
    11     5     8    1
    12     5    17    1
    13     6     7    1
    14     6    18    1
    15     6    19    1
    16     7     9    1
    17     7    20    1
    18     7    21    1
    19     8    11    1
    20     8    22    1
    21     9    10    1
    22     9    23    1
    23     9    24    1
    24    10    25    1
    25    10    26    1
    26    11    12   ar
    27    11    13   ar
    28    12    14   ar
    29    12    29    1
    30    13    15   ar
    31    13    30    1
    32    14    16   ar
    33    15    16   ar
    34    15    31    1
