@<TRIPOS>MOLECULE
IMPHY015673
 24 23 0 0 0
SMALL
GASTEIGER

@<TRIPOS>ATOM
      1 O           3.7320    0.0000    0.0000 O.3     1  UNL1       -0.4647
      2 O           4.5981   -1.5000    0.0000 O.2     1  UNL1       -0.2505
      3 C           5.4641    0.0000    0.0000 C.3     1  UNL1        0.0631
      4 C           7.1962    1.0000    0.0000 C.3     1  UNL1       -0.0376
      5 C           6.3301   -0.5000    0.0000 C.2     1  UNL1       -0.0774
      6 C           7.1962   -0.0000    0.0000 C.2     1  UNL1       -0.0877
      7 C           4.5981   -0.5000    0.0000 C.2     1  UNL1        0.3109
      8 C           2.8660   -0.5000    0.0000 C.3     1  UNL1        0.0897
      9 C           8.0622    1.5000    0.0000 C.3     1  UNL1       -0.0618
     10 C           2.0000   -0.0000    0.0000 C.3     1  UNL1       -0.0306
     11 H           5.8626    0.4749    0.0000 H       1  UNL1        0.0420
     12 H           5.0656    0.4749    0.0000 H       1  UNL1        0.0420
     13 H           6.9841    1.5826    0.0000 H       1  UNL1        0.0305
     14 H           6.5856    0.8923    0.0000 H       1  UNL1        0.0305
     15 H           6.3301   -1.1200    0.0000 H       1  UNL1        0.0574
     16 H           7.7331   -0.3100    0.0000 H       1  UNL1        0.0569
     17 H           2.4675   -0.9749    0.0000 H       1  UNL1        0.0694
     18 H           3.2646   -0.9749    0.0000 H       1  UNL1        0.0694
     19 H           8.3722    0.9631    0.0000 H       1  UNL1        0.0233
     20 H           8.5991    1.8100    0.0000 H       1  UNL1        0.0233
     21 H           7.7522    2.0369    0.0000 H       1  UNL1        0.0233
     22 H           2.3100    0.5369    0.0000 H       1  UNL1        0.0262
     23 H           1.4631    0.3100    0.0000 H       1  UNL1        0.0262
     24 H           1.6900   -0.5369    0.0000 H       1  UNL1        0.0262
@<TRIPOS>BOND
     1     1     7    1
     2     1     8    1
     3     2     7    2
     4     3     5    1
     5     3     7    1
     6     3    11    1
     7     3    12    1
     8     4     6    1
     9     4     9    1
    10     4    13    1
    11     4    14    1
    12     5     6    2
    13     5    15    1
    14     6    16    1
    15     8    10    1
    16     8    17    1
    17     8    18    1
    18     9    19    1
    19     9    20    1
    20     9    21    1
    21    10    22    1
    22    10    23    1
    23    10    24    1
