@<TRIPOS>MOLECULE
IMPHY010274
 22 22 0 0 0
SMALL
GASTEIGER

@<TRIPOS>ATOM
      1 O           4.2690    1.3450    0.0000 O.3     1  UNL1       -0.3459
      2 O           2.5369   -0.6550    0.0000 O.3     1  UNL1       -0.3867
      3 O           4.2690   -1.6550    0.0000 O.3     1  UNL1       -0.3890
      4 O           6.0010    1.3450    0.0000 O.3     1  UNL1       -0.3669
      5 C           3.4030   -0.1550    0.0000 C.3     1  UNL1        0.1070
      6 C           4.2690   -0.6550    0.0000 C.3     1  UNL1        0.0881
      7 C           3.4030    0.8450    0.0000 C.3     1  UNL1        0.0871
      8 C           5.1350   -0.1550    0.0000 C.3     1  UNL1        0.0268
      9 C           5.1350    0.8450    0.0000 C.3     1  UNL1        0.1590
     10 C           2.5369    1.3450    0.0000 C.3     1  UNL1       -0.0361
     11 H           3.4030   -0.7750    0.0000 H       1  UNL1        0.0645
     12 H           4.8059   -0.9650    0.0000 H       1  UNL1        0.0621
     13 H           3.4030    1.4650    0.0000 H       1  UNL1        0.0621
     14 H           5.3471   -0.7376    0.0000 H       1  UNL1        0.0340
     15 H           5.7456   -0.0473    0.0000 H       1  UNL1        0.0340
     16 H           5.8711    0.4200    0.0000 H       1  UNL1        0.0908
     17 H           2.8469    1.8819    0.0000 H       1  UNL1        0.0255
     18 H           2.0000    1.6550    0.0000 H       1  UNL1        0.0255
     19 H           2.2269    0.8081    0.0000 H       1  UNL1        0.0255
     20 H           2.0000   -0.3450    0.0000 H       1  UNL1        0.2100
     21 H           4.8059   -1.9650    0.0000 H       1  UNL1        0.2099
     22 H           6.0010    1.9650    0.0000 H       1  UNL1        0.2125
@<TRIPOS>BOND
     1     1     7    1
     2     1     9    1
     3     5     2    1
     4     2    20    1
     5     6     3    1
     6     3    21    1
     7     4     9    1
     8     4    22    1
     9     5     6    1
    10     5     7    1
    11     5    11    1
    12     6     8    1
    13     6    12    1
    14     7    10    1
    15     7    13    1
    16     8     9    1
    17     8    14    1
    18     8    15    1
    19     9    16    1
    20    10    17    1
    21    10    18    1
    22    10    19    1
