@<TRIPOS>MOLECULE
IMPHY004158
 51 54 0 0 0
SMALL
GASTEIGER

@<TRIPOS>ATOM
      1 O           3.9435   -3.9148    0.0000 O.3     1  UNL1       -0.3912
      2 O           5.4934    2.4490    0.0000 O.3     1  UNL1       -0.4533
      3 O           5.5883    4.2228    0.0000 O.2     1  UNL1       -0.2453
      4 C           3.9064   -0.7596    0.0000 C.3     1  UNL1       -0.0219
      5 C           3.0084   -1.2874    0.0000 C.3     1  UNL1       -0.0273
      6 C           3.0000   -2.3724    0.0000 C.3     1  UNL1       -0.0056
      7 C           3.8903    0.2819    0.0000 C.3     1  UNL1       -0.0103
      8 C           4.8583   -1.2803    0.0000 C.3     1  UNL1       -0.0445
      9 C           2.1063   -0.7666    0.0000 C.3     1  UNL1       -0.0454
     10 C           3.9396   -2.9148    0.0000 C.3     1  UNL1        0.0606
     11 C           4.8750   -2.3651    0.0000 C.3     1  UNL1       -0.0258
     12 C           3.0243    0.7819    0.0000 C.2     1  UNL1       -0.0654
     13 C           2.1143    0.2750    0.0000 C.3     1  UNL1       -0.0309
     14 C           4.7564    0.7819    0.0000 C.3     1  UNL1       -0.0044
     15 C           4.7685   -0.2530    0.0000 C.3     1  UNL1       -0.0587
     16 C           2.4967   -3.2364    0.0000 C.3     1  UNL1       -0.0572
     17 C           2.0000   -2.3685    0.0000 C.3     1  UNL1       -0.0572
     18 C           4.7564    1.7819    0.0000 C.3     1  UNL1        0.1294
     19 C           3.0243    1.7819    0.0000 C.2     1  UNL1       -0.0551
     20 C           3.8903    2.2819    0.0000 C.2     1  UNL1        0.0024
     21 C           4.0995    3.2537    0.0000 C.2     1  UNL1        0.0402
     22 C           5.0883    3.3567    0.0000 C.2     1  UNL1        0.3358
     23 C           3.4317    3.9980    0.0000 C.3     1  UNL1       -0.0326
     24 H           2.2706   -1.7096    0.0000 H       1  UNL1        0.0312
     25 H           4.6297   -0.1374    0.0000 H       1  UNL1        0.0352
     26 H           5.4707   -1.3769    0.0000 H       1  UNL1        0.0272
     27 H           5.0584   -0.6934    0.0000 H       1  UNL1        0.0272
     28 H           1.4963   -0.6558    0.0000 H       1  UNL1        0.0271
     29 H           1.8927   -1.3486    0.0000 H       1  UNL1        0.0271
     30 H           4.4783   -3.2217    0.0000 H       1  UNL1        0.0599
     31 H           5.0931   -2.9455    0.0000 H       1  UNL1        0.0290
     32 H           5.4842   -2.2496    0.0000 H       1  UNL1        0.0290
     33 H           1.9098    0.8603    0.0000 H       1  UNL1        0.0310
     34 H           1.5026    0.1736    0.0000 H       1  UNL1        0.0310
     35 H           4.9684    0.1993    0.0000 H       1  UNL1        0.0310
     36 H           5.3669    0.8895    0.0000 H       1  UNL1        0.0310
     37 H           5.0827   -0.7875    0.0000 H       1  UNL1        0.0235
     38 H           5.3031    0.0612    0.0000 H       1  UNL1        0.0235
     39 H           4.4544    0.2816    0.0000 H       1  UNL1        0.0235
     40 H           1.9609   -2.9244    0.0000 H       1  UNL1        0.0236
     41 H           2.1846   -3.7722    0.0000 H       1  UNL1        0.0236
     42 H           3.0324   -3.5485    0.0000 H       1  UNL1        0.0236
     43 H           2.0024   -1.7485    0.0000 H       1  UNL1        0.0236
     44 H           1.3800   -2.3661    0.0000 H       1  UNL1        0.0236
     45 H           1.9976   -2.9885    0.0000 H       1  UNL1        0.0236
     46 H           5.5333    1.4372    0.0000 H       1  UNL1        0.0786
     47 H           2.4874    2.0919    0.0000 H       1  UNL1        0.0621
     48 H           4.4816   -4.2228    0.0000 H       1  UNL1        0.2098
     49 H           3.8932    4.4120    0.0000 H       1  UNL1        0.0280
     50 H           3.0176    4.4595    0.0000 H       1  UNL1        0.0280
     51 H           2.9702    3.5839    0.0000 H       1  UNL1        0.0280
@<TRIPOS>BOND
     1    10     1    1
     2     1    48    1
     3     2    18    1
     4     2    22    1
     5     3    22    2
     6     4     5    1
     7     4     7    1
     8     4     8    1
     9     4    15    1
    10     5     6    1
    11     5     9    1
    12     5    24    1
    13     6    10    1
    14     6    16    1
    15     6    17    1
    16     7    12    1
    17     7    14    1
    18     7    25    1
    19     8    11    1
    20     8    26    1
    21     8    27    1
    22     9    13    1
    23     9    28    1
    24     9    29    1
    25    10    11    1
    26    10    30    1
    27    11    31    1
    28    11    32    1
    29    12    13    1
    30    12    19    2
    31    13    33    1
    32    13    34    1
    33    14    18    1
    34    14    35    1
    35    14    36    1
    36    15    37    1
    37    15    38    1
    38    15    39    1
    39    16    40    1
    40    16    41    1
    41    16    42    1
    42    17    43    1
    43    17    44    1
    44    17    45    1
    45    18    20    1
    46    18    46    1
    47    19    20    1
    48    19    47    1
    49    20    21    2
    50    21    22    1
    51    21    23    1
    52    23    49    1
    53    23    50    1
    54    23    51    1
