@<TRIPOS>MOLECULE
IMPHY010647
 29 34 0 0 0
SMALL
GASTEIGER

@<TRIPOS>ATOM
      1 O           6.6676   -1.6468    0.0000 O.3     1  UNL1       -0.3239
      2 C           5.5965   -2.4234    0.0000 C.3     1  UNL1        0.2703
      3 C           5.9981   -3.6953    0.0000 C.3     1  UNL1        0.0957
      4 C           7.3236   -3.6953    0.0000 C.3     1  UNL1        0.1860
      5 C           7.7387   -4.9672    0.0000 C.3     1  UNL1        0.1754
      6 O           6.6676   -5.7170    0.0000 O.3     1  UNL1       -0.3492
      7 C           5.5965   -4.9672    0.0000 C.3     1  UNL1        0.1411
      8 C           7.7387   -2.4234    0.0000 C.3     1  UNL1        0.1703
      9 O           4.3379   -2.0217    0.0000 O.3     1  UNL1       -0.1901
     10 O           8.6491   -3.6953    0.0000 O.3     1  UNL1       -0.2203
     11 C           4.3379   -5.5697    0.0000 C.ar    1  UNL1        0.0077
     12 C           3.1865   -4.9137    0.0000 C.ar    1  UNL1        0.0382
     13 C           2.0351   -5.5697    0.0000 C.ar    1  UNL1        0.1762
     14 O           0.7765   -5.1680    0.0000 O.3     1  UNL1       -0.4346
     15 C           0.0000   -6.2391    0.0000 C.3     1  UNL1        0.4294
     16 O           0.7765   -7.3102    0.0000 O.3     1  UNL1       -0.4346
     17 C           2.0351   -6.8952    0.0000 C.ar    1  UNL1        0.1764
     18 C           3.1865   -7.5646    0.0000 C.ar    1  UNL1        0.0399
     19 C           4.3379   -6.8952    0.0000 C.ar    1  UNL1        0.0014
     20 C           9.0374   -1.9949    0.0000 C.ar    1  UNL1        0.0103
     21 C          10.1888   -2.6510    0.0000 C.ar    1  UNL1        0.0383
     22 C          11.3402   -1.9949    0.0000 C.ar    1  UNL1        0.1762
     23 O          12.6122   -2.4100    0.0000 O.3     1  UNL1       -0.4346
     24 C          13.3887   -1.3255    0.0000 C.3     1  UNL1        0.4294
     25 O          12.6122   -0.2544    0.0000 O.3     1  UNL1       -0.4346
     26 C          11.3402   -0.6694    0.0000 C.ar    1  UNL1        0.1764
     27 C          10.1888    0.0000    0.0000 C.ar    1  UNL1        0.0399
     28 C           9.0374   -0.6694    0.0000 C.ar    1  UNL1        0.0015
     29 H           4.6727   -3.6953    0.0000 H       1  UNL1        0.0420
@<TRIPOS>BOND
     1     1     8    1
     2     1     2    1
     3     2     3    1
     4     2     9    1
     5     3     4    1
     6     3     7    1
     7     3    29    1
     8     4     8    1
     9     4     5    1
    10     4    10    1
    11     5     6    1
    12     6     7    1
    13     7    11    1
    14     8    20    1
    15    11    12   ar
    16    11    19   ar
    17    12    13   ar
    18    13    17   ar
    19    13    14    1
    20    14    15    1
    21    15    16    1
    22    16    17    1
    23    17    18   ar
    24    18    19   ar
    25    20    28   ar
    26    20    21   ar
    27    21    22   ar
    28    22    26   ar
    29    22    23    1
    30    23    24    1
    31    24    25    1
    32    25    26    1
    33    26    27   ar
    34    27    28   ar
