@<TRIPOS>MOLECULE
IMPHY006475
 37 38 0 0 0
SMALL
GASTEIGER

@<TRIPOS>ATOM
      1 O           2.8660    1.7327    0.0000 O.2     1  UNL1       -0.2971
      2 C           5.4641   -0.7673    0.0000 C.3     1  UNL1       -0.0108
      3 C           5.4641    0.2327    0.0000 C.2     1  UNL1       -0.0641
      4 C           6.3580   -1.3020    0.0000 C.3     1  UNL1       -0.0439
      5 C           4.5981   -1.2673    0.0000 C.3     1  UNL1       -0.0430
      6 C           6.3580    0.7674    0.0000 C.3     1  UNL1       -0.0222
      7 C           7.2641   -0.7881    0.0000 C.3     1  UNL1       -0.0517
      8 C           7.2641    0.2535    0.0000 C.3     1  UNL1       -0.0467
      9 C           3.7320   -0.7673    0.0000 C.3     1  UNL1       -0.0392
     10 C           3.7320    0.2327    0.0000 C.3     1  UNL1        0.0356
     11 C           5.4641   -1.7673    0.0000 C.3     1  UNL1       -0.0558
     12 C           4.5981    0.7327    0.0000 C.2     1  UNL1       -0.0738
     13 C           6.3465    1.7673    0.0000 C.3     1  UNL1       -0.0587
     14 C           2.8660    0.7327    0.0000 C.2     1  UNL1        0.1371
     15 C           2.0000    0.2327    0.0000 C.3     1  UNL1       -0.0055
     16 H           5.9534   -1.7718    0.0000 H       1  UNL1        0.0274
     17 H           6.7517   -1.7810    0.0000 H       1  UNL1        0.0274
     18 H           4.1996   -1.7422    0.0000 H       1  UNL1        0.0274
     19 H           4.9966   -1.7422    0.0000 H       1  UNL1        0.0274
     20 H           6.8920    1.0825    0.0000 H       1  UNL1        0.0343
     21 H           7.4732   -1.3718    0.0000 H       1  UNL1        0.0266
     22 H           7.8750   -0.6820    0.0000 H       1  UNL1        0.0266
     23 H           7.8750    0.1474    0.0000 H       1  UNL1        0.0271
     24 H           7.4732    0.8372    0.0000 H       1  UNL1        0.0271
     25 H           3.1215   -0.6596    0.0000 H       1  UNL1        0.0275
     26 H           3.5200   -1.3499    0.0000 H       1  UNL1        0.0275
     27 H           3.7320    1.0827    0.0000 H       1  UNL1        0.0420
     28 H           4.5981    1.3527    0.0000 H       1  UNL1        0.0579
     29 H           4.8441   -1.7673    0.0000 H       1  UNL1        0.0238
     30 H           5.4641   -2.3873    0.0000 H       1  UNL1        0.0238
     31 H           6.0841   -1.7673    0.0000 H       1  UNL1        0.0238
     32 H           6.9664    1.7745    0.0000 H       1  UNL1        0.0235
     33 H           6.3393    2.3873    0.0000 H       1  UNL1        0.0235
     34 H           5.7265    1.7601    0.0000 H       1  UNL1        0.0235
     35 H           1.6900    0.7696    0.0000 H       1  UNL1        0.0306
     36 H           1.4631   -0.0773    0.0000 H       1  UNL1        0.0306
     37 H           2.3100   -0.3042    0.0000 H       1  UNL1        0.0306
@<TRIPOS>BOND
     1     1    14    2
     2     2     3    1
     3     2     4    1
     4     2     5    1
     5     2    11    1
     6     3     6    1
     7     3    12    2
     8     4     7    1
     9     4    16    1
    10     4    17    1
    11     5     9    1
    12     5    18    1
    13     5    19    1
    14     6     8    1
    15     6    13    1
    16     6    20    1
    17     7     8    1
    18     7    21    1
    19     7    22    1
    20     8    23    1
    21     8    24    1
    22     9    10    1
    23     9    25    1
    24     9    26    1
    25    10    12    1
    26    10    14    1
    27    10    27    1
    28    11    29    1
    29    11    30    1
    30    11    31    1
    31    12    28    1
    32    13    32    1
    33    13    33    1
    34    13    34    1
    35    14    15    1
    36    15    35    1
    37    15    36    1
    38    15    37    1
