@<TRIPOS>MOLECULE
IMPHY007744
 97 101 0 0 0
SMALL
GASTEIGER

@<TRIPOS>ATOM
      1 S           5.1350   -4.0818    0.0000 S.O2    1  UNL1        0.2080
      2 S           3.4030   -2.0818    0.0000 S.O2    1  UNL1        0.2079
      3 O          10.1475    5.1653    0.0000 O.3     1  UNL1       -0.3869
      4 O           7.7331   -0.5818    0.0000 O.3     1  UNL1       -0.3444
      5 O           4.8739    2.4212    0.0000 O.3     1  UNL1       -0.4798
      6 O           6.8348    3.7811    0.0000 O.3     1  UNL1       -0.4798
      7 O           5.5655    3.5774    0.0000 O.2     1  UNL1       -0.2498
      8 O           5.2949    1.2065    0.0000 O.2     1  UNL1       -0.2498
      9 O           6.0010   -0.5818    0.0000 O.3     1  UNL1       -0.3395
     10 O           7.7331   -2.5818    0.0000 O.3     1  UNL1       -0.4534
     11 O           6.0010   -3.5818    0.0000 O.3     1  UNL1       -0.2058
     12 O           4.2690   -2.5818    0.0000 O.3     1  UNL1       -0.2070
     13 O           4.2690    0.4182    0.0000 O.3     1  UNL1       -0.3924
     14 O           6.8671   -4.0818    0.0000 O.2     1  UNL1       -0.2508
     15 O           4.2690   -4.5818    0.0000 O.3     1  UNL1       -0.2311
     16 O           5.6350   -4.9478    0.0000 O.2     1  UNL1       -0.1181
     17 O           4.6350   -3.2157    0.0000 O.2     1  UNL1       -0.1181
     18 O           2.5369   -1.5818    0.0000 O.3     1  UNL1       -0.2311
     19 O           2.9030   -2.9478    0.0000 O.2     1  UNL1       -0.1181
     20 O           3.9030   -1.2157    0.0000 O.2     1  UNL1       -0.1181
     21 C           9.5697    3.5735    0.0000 C.3     1  UNL1        0.0044
     22 C           9.5581    2.5736    0.0000 C.3     1  UNL1       -0.0269
     23 C           8.6581    2.0493    0.0000 C.3     1  UNL1       -0.0219
     24 C           7.7580    2.5736    0.0000 C.3     1  UNL1       -0.0091
     25 C          10.5765    2.9550    0.0000 C.3     1  UNL1       -0.0378
     26 C           8.6820    4.1185    0.0000 C.3     1  UNL1       -0.0441
     27 C          11.7544    3.0482    0.0000 C.3     1  UNL1       -0.0171
     28 C          10.3587    4.1879    0.0000 C.3     1  UNL1        0.0822
     29 C          10.3327    1.9411    0.0000 C.3     1  UNL1       -0.0486
     30 C           7.7701    3.6151    0.0000 C.3     1  UNL1       -0.0476
     31 C           8.6706    0.9644    0.0000 C.3     1  UNL1       -0.0205
     32 C           6.8081    2.0493    0.0000 C.3     1  UNL1        0.1690
     33 C          11.3101    2.1523    0.0000 C.3     1  UNL1       -0.0461
     34 C          11.3310    3.9541    0.0000 C.2     1  UNL1       -0.0449
     35 C           9.2979    1.2808    0.0000 C.3     1  UNL1       -0.0589
     36 C           7.7331    0.4182    0.0000 C.3     1  UNL1        0.0639
     37 C           6.7956    0.9644    0.0000 C.3     1  UNL1       -0.0000
     38 C           5.8082    2.0647    0.0000 C.2     1  UNL1        0.3222
     39 C           6.3215    2.9229    0.0000 C.2     1  UNL1        0.3222
     40 C          11.9635    4.7287    0.0000 C.2     1  UNL1       -0.0967
     41 C           6.8671   -1.0818    0.0000 C.3     1  UNL1        0.1996
     42 C           6.8671   -2.0818    0.0000 C.3     1  UNL1        0.1843
     43 C           6.0010   -2.5818    0.0000 C.3     1  UNL1        0.1620
     44 C           5.1350   -1.0818    0.0000 C.3     1  UNL1        0.1158
     45 C           5.1350   -2.0818    0.0000 C.3     1  UNL1        0.1499
     46 C           4.2690   -0.5818    0.0000 C.3     1  UNL1        0.0731
     47 C           7.7331   -3.5818    0.0000 C.2     1  UNL1        0.3078
     48 C           8.5991   -4.0818    0.0000 C.3     1  UNL1        0.0473
     49 C           8.5991   -5.0818    0.0000 C.3     1  UNL1       -0.0367
     50 C           9.4651   -5.5818    0.0000 C.3     1  UNL1       -0.0622
     51 C           7.7331   -5.5818    0.0000 C.3     1  UNL1       -0.0622
     52 H           9.5483    1.7236    0.0000 H       1  UNL1        0.0312
     53 H           7.2259    2.8918    0.0000 H       1  UNL1        0.0322
     54 H          10.1048    2.5526    0.0000 H       1  UNL1        0.0277
     55 H          10.8137    2.3821    0.0000 H       1  UNL1        0.0277
     56 H           9.0920    4.5835    0.0000 H       1  UNL1        0.0272
     57 H           8.2939    4.6020    0.0000 H       1  UNL1        0.0272
     58 H          12.5809    2.8495    0.0000 H       1  UNL1        0.0347
     59 H          10.8021    4.6212    0.0000 H       1  UNL1        0.0646
     60 H           9.8435    1.5601    0.0000 H       1  UNL1        0.0268
     61 H          10.5952    1.3794    0.0000 H       1  UNL1        0.0268
     62 H           7.5678    4.2012    0.0000 H       1  UNL1        0.0269
     63 H           7.1580    3.5161    0.0000 H       1  UNL1        0.0269
     64 H           8.8864    0.3831    0.0000 H       1  UNL1        0.0296
     65 H           9.2802    1.0775    0.0000 H       1  UNL1        0.0296
     66 H          11.3030    1.5324    0.0000 H       1  UNL1        0.0271
     67 H          11.9130    2.0074    0.0000 H       1  UNL1        0.0271
     68 H           8.8214    0.8841    0.0000 H       1  UNL1        0.0235
     69 H           9.6946    0.8043    0.0000 H       1  UNL1        0.0235
     70 H           9.7744    1.6774    0.0000 H       1  UNL1        0.0235
     71 H           8.2706    0.1093    0.0000 H       1  UNL1        0.0597
     72 H           6.1860    1.0775    0.0000 H       1  UNL1        0.0306
     73 H           6.5798    0.3831    0.0000 H       1  UNL1        0.0306
     74 H          10.6068    5.5818    0.0000 H       1  UNL1        0.2102
     75 H          12.5754    4.6292    0.0000 H       1  UNL1        0.0535
     76 H          11.7437    5.3084    0.0000 H       1  UNL1        0.0535
     77 H           6.8671   -0.4618    0.0000 H       1  UNL1        0.0949
     78 H           6.5331    4.3228    0.0000 H       1  UNL1        0.2951
     79 H           4.3929    2.0300    0.0000 H       1  UNL1        0.2951
     80 H           6.8671   -2.7018    0.0000 H       1  UNL1        0.0814
     81 H           5.4641   -2.8918    0.0000 H       1  UNL1        0.0688
     82 H           5.1350   -0.4618    0.0000 H       1  UNL1        0.0648
     83 H           4.5981   -1.7718    0.0000 H       1  UNL1        0.0676
     84 H           3.6584   -0.4741    0.0000 H       1  UNL1        0.0584
     85 H           4.0569   -1.1644    0.0000 H       1  UNL1        0.0584
     86 H           3.7320    0.7282    0.0000 H       1  UNL1        0.2095
     87 H           9.2097   -4.1894    0.0000 H       1  UNL1        0.0380
     88 H           8.8112   -3.4992    0.0000 H       1  UNL1        0.0380
     89 H           8.5991   -5.7018    0.0000 H       1  UNL1        0.0301
     90 H           4.2690   -5.2018    0.0000 H       1  UNL1        0.2469
     91 H           2.0000   -1.8918    0.0000 H       1  UNL1        0.2469
     92 H           7.4231   -5.0448    0.0000 H       1  UNL1        0.0232
     93 H           7.1962   -5.8918    0.0000 H       1  UNL1        0.0232
     94 H           8.0431   -6.1187    0.0000 H       1  UNL1        0.0232
     95 H           9.1551   -6.1187    0.0000 H       1  UNL1        0.0232
     96 H          10.0021   -5.8918    0.0000 H       1  UNL1        0.0232
     97 H           9.7751   -5.0448    0.0000 H       1  UNL1        0.0232
@<TRIPOS>BOND
     1     1    11    1
     2     1    15    1
     3     1    16    2
     4     1    17    2
     5     2    12    1
     6     2    18    1
     7     2    19    2
     8     2    20    2
     9    28     3    1
    10     3    74    1
    11    36     4    1
    12    41     4    1
    13     5    38    1
    14     5    79    1
    15     6    39    1
    16     6    78    1
    17     7    39    2
    18     8    38    2
    19     9    41    1
    20     9    44    1
    21    42    10    1
    22    10    47    1
    23    43    11    1
    24    45    12    1
    25    13    46    1
    26    13    86    1
    27    14    47    2
    28    15    90    1
    29    18    91    1
    30    21    22    1
    31    21    25    1
    32    21    26    1
    33    21    28    1
    34    22    23    1
    35    22    29    1
    36    22    52    1
    37    23    24    1
    38    23    31    1
    39    23    35    1
    40    24    30    1
    41    24    32    1
    42    24    53    1
    43    25    27    1
    44    25    54    1
    45    25    55    1
    46    26    30    1
    47    26    56    1
    48    26    57    1
    49    27    33    1
    50    27    34    1
    51    27    58    1
    52    28    34    1
    53    28    59    1
    54    29    33    1
    55    29    60    1
    56    29    61    1
    57    30    62    1
    58    30    63    1
    59    31    36    1
    60    31    64    1
    61    31    65    1
    62    32    37    1
    63    32    38    1
    64    32    39    1
    65    33    66    1
    66    33    67    1
    67    34    40    2
    68    35    68    1
    69    35    69    1
    70    35    70    1
    71    36    37    1
    72    36    71    1
    73    37    72    1
    74    37    73    1
    75    40    75    1
    76    40    76    1
    77    41    42    1
    78    41    77    1
    79    42    43    1
    80    42    80    1
    81    43    45    1
    82    43    81    1
    83    44    45    1
    84    44    46    1
    85    44    82    1
    86    45    83    1
    87    46    84    1
    88    46    85    1
    89    47    48    1
    90    48    49    1
    91    48    87    1
    92    48    88    1
    93    49    50    1
    94    49    51    1
    95    49    89    1
    96    50    95    1
    97    50    96    1
    98    50    97    1
    99    51    92    1
   100    51    93    1
   101    51    94    1
