@<TRIPOS>MOLECULE
IMPHY013367
 70 74 0 0 0
SMALL
GASTEIGER

@<TRIPOS>ATOM
      1 O          11.1972   -1.6796    0.0000 O.3     1  UNL1       -0.3302
      2 O          12.9292   -1.6796    0.0000 O.3     1  UNL1       -0.4606
      3 O           9.4651   -3.6796    0.0000 O.3     1  UNL1       -0.3864
      4 O          11.1972   -4.6796    0.0000 O.3     1  UNL1       -0.3864
      5 O          12.9292   -3.6796    0.0000 O.3     1  UNL1       -0.3829
      6 O           8.5991   -2.1796    0.0000 O.3     1  UNL1       -0.4589
      7 O          14.6852    1.3829    0.0000 O.3     1  UNL1       -0.4828
      8 O          11.1830    1.3996    0.0000 O.3     1  UNL1       -0.5058
      9 O          12.0929    2.8930    0.0000 O.2     1  UNL1       -0.2917
     10 O           7.7331   -0.6796    0.0000 O.2     1  UNL1       -0.2456
     11 O          18.1608    4.3696    0.0000 O.3     1  UNL1       -0.5068
     12 O           2.5369   -3.6796    0.0000 O.3     1  UNL1       -0.5068
     13 C          10.3312   -3.1796    0.0000 C.3     1  UNL1        0.1130
     14 C          11.1972   -3.6796    0.0000 C.3     1  UNL1        0.1152
     15 C          10.3312   -2.1796    0.0000 C.3     1  UNL1        0.1250
     16 C          12.0632   -3.1796    0.0000 C.3     1  UNL1        0.1454
     17 C          12.0632   -2.1796    0.0000 C.3     1  UNL1        0.2308
     18 C           9.4651   -1.6796    0.0000 C.3     1  UNL1        0.1215
     19 C          12.9292   -0.6796    0.0000 C.ar    1  UNL1        0.1310
     20 C          14.6891    2.3829    0.0000 C.3     1  UNL1        0.1322
     21 C          13.8173    0.8863    0.0000 C.ar    1  UNL1        0.1389
     22 C          13.8293   -0.1553    0.0000 C.ar    1  UNL1        0.0229
     23 C          12.9532    1.3896    0.0000 C.ar    1  UNL1        0.1007
     24 C          13.8250    2.8863    0.0000 C.3     1  UNL1        0.0520
     25 C          12.0292   -0.1553    0.0000 C.ar    1  UNL1        0.0226
     26 C          12.9570    2.3896    0.0000 C.2     1  UNL1        0.1740
     27 C          12.0412    0.8863    0.0000 C.ar    1  UNL1        0.1343
     28 C          15.5570    2.8796    0.0000 C.ar    1  UNL1       -0.0067
     29 C           7.7331   -1.6796    0.0000 C.2     1  UNL1        0.3320
     30 C          15.5609    3.8796    0.0000 C.ar    1  UNL1       -0.0516
     31 C          16.4211    2.3763    0.0000 C.ar    1  UNL1       -0.0516
     32 C           6.8671   -2.1796    0.0000 C.2     1  UNL1        0.0231
     33 C          16.4288    4.3762    0.0000 C.ar    1  UNL1       -0.0198
     34 C          17.2890    2.8729    0.0000 C.ar    1  UNL1       -0.0198
     35 C          17.2929    3.8729    0.0000 C.ar    1  UNL1        0.1169
     36 C           6.0010   -1.6796    0.0000 C.2     1  UNL1       -0.0478
     37 C           5.1350   -2.1796    0.0000 C.ar    1  UNL1       -0.0246
     38 C           5.1350   -3.1796    0.0000 C.ar    1  UNL1       -0.0511
     39 C           4.2690   -1.6796    0.0000 C.ar    1  UNL1       -0.0511
     40 C           4.2690   -3.6796    0.0000 C.ar    1  UNL1       -0.0196
     41 C           3.4030   -2.1796    0.0000 C.ar    1  UNL1       -0.0196
     42 C           3.4030   -3.1796    0.0000 C.ar    1  UNL1        0.1169
     43 H           9.7942   -2.8696    0.0000 H       1  UNL1        0.0647
     44 H          10.6603   -3.9896    0.0000 H       1  UNL1        0.0648
     45 H          10.3312   -1.5596    0.0000 H       1  UNL1        0.0658
     46 H          12.0632   -3.7996    0.0000 H       1  UNL1        0.0683
     47 H          12.6002   -2.4896    0.0000 H       1  UNL1        0.1084
     48 H           9.8637   -1.2046    0.0000 H       1  UNL1        0.0725
     49 H           9.0666   -1.2046    0.0000 H       1  UNL1        0.0725
     50 H           9.4651   -4.2996    0.0000 H       1  UNL1        0.2100
     51 H          10.6603   -4.9896    0.0000 H       1  UNL1        0.2100
     52 H          12.9292   -4.2996    0.0000 H       1  UNL1        0.2102
     53 H          14.6915    3.0029    0.0000 H       1  UNL1        0.0789
     54 H          14.3686   -0.4611    0.0000 H       1  UNL1        0.0691
     55 H          14.2253    3.3597    0.0000 H       1  UNL1        0.0385
     56 H          13.4283    3.3628    0.0000 H       1  UNL1        0.0385
     57 H          11.4899   -0.4611    0.0000 H       1  UNL1        0.0691
     58 H          15.0251    4.1916    0.0000 H       1  UNL1        0.0623
     59 H          16.4187    1.7563    0.0000 H       1  UNL1        0.0623
     60 H          10.6414    1.0979    0.0000 H       1  UNL1        0.2922
     61 H           6.8671   -2.7996    0.0000 H       1  UNL1        0.0689
     62 H          16.4312    4.9962    0.0000 H       1  UNL1        0.0654
     63 H          17.8248    2.5608    0.0000 H       1  UNL1        0.0654
     64 H           6.0010   -1.0596    0.0000 H       1  UNL1        0.0626
     65 H          18.1632    4.9896    0.0000 H       1  UNL1        0.2921
     66 H           5.6720   -3.4896    0.0000 H       1  UNL1        0.0625
     67 H           4.2690   -1.0596    0.0000 H       1  UNL1        0.0625
     68 H           4.2690   -4.2996    0.0000 H       1  UNL1        0.0654
     69 H           2.8660   -1.8696    0.0000 H       1  UNL1        0.0654
     70 H           2.0000   -3.3696    0.0000 H       1  UNL1        0.2921
@<TRIPOS>BOND
     1     1    15    1
     2     1    17    1
     3    17     2    1
     4     2    19    1
     5    13     3    1
     6     3    50    1
     7    14     4    1
     8     4    51    1
     9     5    16    1
    10     5    52    1
    11     6    18    1
    12     6    29    1
    13     7    20    1
    14     7    21    1
    15     8    27    1
    16     8    60    1
    17     9    26    2
    18    10    29    2
    19    11    35    1
    20    11    65    1
    21    12    42    1
    22    12    70    1
    23    13    14    1
    24    13    15    1
    25    13    43    1
    26    14    16    1
    27    14    44    1
    28    15    18    1
    29    15    45    1
    30    16    17    1
    31    16    46    1
    32    17    47    1
    33    18    48    1
    34    18    49    1
    35    19    22   ar
    36    19    25   ar
    37    20    24    1
    38    20    28    1
    39    20    53    1
    40    21    22   ar
    41    21    23   ar
    42    22    54    1
    43    23    26    1
    44    23    27   ar
    45    24    26    1
    46    24    55    1
    47    24    56    1
    48    25    27   ar
    49    25    57    1
    50    28    30   ar
    51    28    31   ar
    52    29    32    1
    53    30    33   ar
    54    30    58    1
    55    31    34   ar
    56    31    59    1
    57    32    36    2
    58    32    61    1
    59    33    35   ar
    60    33    62    1
    61    34    35   ar
    62    34    63    1
    63    36    37    1
    64    36    64    1
    65    37    38   ar
    66    37    39   ar
    67    38    40   ar
    68    38    66    1
    69    39    41   ar
    70    39    67    1
    71    40    42   ar
    72    40    68    1
    73    41    42   ar
    74    41    69    1
