@<TRIPOS>MOLECULE
IMPHY011164
 51 53 0 0 0
SMALL
GASTEIGER

@<TRIPOS>ATOM
      1 O           3.9057   -0.3944    0.0000 O.3     1  UNL1       -0.3837
      2 O           3.7320    3.5904    0.0000 O.2     1  UNL1       -0.2923
      3 O           2.0296   -3.0904    0.0000 O.2     1  UNL1       -0.4708
      4 C           4.5981    1.0904    0.0000 C.3     1  UNL1        0.0109
      5 C           4.5981    2.0904    0.0000 C.3     1  UNL1        0.0349
      6 C           5.4920    2.6250    0.0000 C.3     1  UNL1       -0.0245
      7 C           3.7320    0.5904    0.0000 C.3     1  UNL1        0.0935
      8 C           5.4920    0.5557    0.0000 C.3     1  UNL1       -0.0440
      9 C           6.3981    2.1112    0.0000 C.3     1  UNL1       -0.0472
     10 C           6.3981    1.0696    0.0000 C.3     1  UNL1       -0.0519
     11 C           4.9402    0.1507    0.0000 C.3     1  UNL1       -0.0560
     12 C           3.7320    2.5904    0.0000 C.2     1  UNL1        0.1603
     13 C           2.8660    1.0904    0.0000 C.2     1  UNL1       -0.0377
     14 C           3.2320   -0.2756    0.0000 C.3     1  UNL1       -0.0155
     15 C           5.9820    3.4968    0.0000 C.3     1  UNL1       -0.0591
     16 C           4.9820    3.4852    0.0000 C.3     1  UNL1       -0.0591
     17 C           2.8660    2.0904    0.0000 C.2     1  UNL1       -0.0172
     18 C           3.7320   -1.1417    0.0000 C.3     1  UNL1       -0.0218
     19 C           2.0000    0.5904    0.0000 C.3     1  UNL1       -0.0407
     20 C           3.2320   -2.0077    0.0000 C.ar    1  UNL1       -0.0096
     21 C           3.6388   -2.9212    0.0000 C.ar    1  UNL1       -0.0208
     22 C           2.2375   -2.1122    0.0000 C.ar    1  UNL1        0.0948
     23 C           2.8956   -3.5904    0.0000 C.ar    1  UNL1        0.0919
     24 H           4.5915    2.9404    0.0000 H       1  UNL1        0.0392
     25 H           5.0874    0.0859    0.0000 H       1  UNL1        0.0272
     26 H           5.8856    0.0767    0.0000 H       1  UNL1        0.0272
     27 H           7.0089    2.0051    0.0000 H       1  UNL1        0.0271
     28 H           6.6071    2.6949    0.0000 H       1  UNL1        0.0271
     29 H           6.6071    0.4859    0.0000 H       1  UNL1        0.0266
     30 H           7.0089    1.1756    0.0000 H       1  UNL1        0.0266
     31 H           4.3576   -0.0614    0.0000 H       1  UNL1        0.0236
     32 H           5.1523   -0.4319    0.0000 H       1  UNL1        0.0236
     33 H           5.5228    0.3628    0.0000 H       1  UNL1        0.0236
     34 H           2.7571    0.1229    0.0000 H       1  UNL1        0.0299
     35 H           2.7571   -0.6742    0.0000 H       1  UNL1        0.0299
     36 H           6.5225    3.1930    0.0000 H       1  UNL1        0.0235
     37 H           6.2857    4.0373    0.0000 H       1  UNL1        0.0235
     38 H           5.4415    3.8006    0.0000 H       1  UNL1        0.0235
     39 H           5.5154    3.8014    0.0000 H       1  UNL1        0.0235
     40 H           4.6658    4.0185    0.0000 H       1  UNL1        0.0235
     41 H           4.4487    3.1690    0.0000 H       1  UNL1        0.0235
     42 H           2.3291    2.4004    0.0000 H       1  UNL1        0.0653
     43 H           4.4883   -0.6065    0.0000 H       1  UNL1        0.2106
     44 H           4.2070   -1.5402    0.0000 H       1  UNL1        0.0315
     45 H           4.2070   -0.7431    0.0000 H       1  UNL1        0.0315
     46 H           1.6900    1.1273    0.0000 H       1  UNL1        0.0275
     47 H           1.4631    0.2804    0.0000 H       1  UNL1        0.0275
     48 H           2.3100    0.0534    0.0000 H       1  UNL1        0.0275
     49 H           4.2452   -3.0502    0.0000 H       1  UNL1        0.0652
     50 H           1.8227   -1.6515    0.0000 H       1  UNL1        0.1032
     51 H           2.9604   -4.2070    0.0000 H       1  UNL1        0.1029
@<TRIPOS>BOND
     1     7     1    1
     2     1    43    1
     3     2    12    2
     4     3    22   ar
     5     3    23   ar
     6     4     5    1
     7     4     7    1
     8     4     8    1
     9     4    11    1
    10     5     6    1
    11     5    12    1
    12     5    24    1
    13     6     9    1
    14     6    15    1
    15     6    16    1
    16     7    13    1
    17     7    14    1
    18     8    10    1
    19     8    25    1
    20     8    26    1
    21     9    10    1
    22     9    27    1
    23     9    28    1
    24    10    29    1
    25    10    30    1
    26    11    31    1
    27    11    32    1
    28    11    33    1
    29    12    17    1
    30    13    17    2
    31    13    19    1
    32    14    18    1
    33    14    34    1
    34    14    35    1
    35    15    36    1
    36    15    37    1
    37    15    38    1
    38    16    39    1
    39    16    40    1
    40    16    41    1
    41    17    42    1
    42    18    20    1
    43    18    44    1
    44    18    45    1
    45    19    46    1
    46    19    47    1
    47    19    48    1
    48    20    21   ar
    49    20    22   ar
    50    21    23   ar
    51    21    49    1
    52    22    50    1
    53    23    51    1
