@<TRIPOS>MOLECULE
IMPHY008301
 41 41 0 0 0
SMALL
GASTEIGER

@<TRIPOS>ATOM
      1 O           5.4641    0.7500    0.0000 O.3     1  UNL1       -0.4558
      2 O           3.7320    0.7500    0.0000 O.2     1  UNL1       -0.2450
      3 O           2.8660   -2.7500    0.0000 O.3     1  UNL1       -0.4914
      4 O           4.5981   -3.7500    0.0000 O.3     1  UNL1       -0.4915
      5 N           6.3301    3.2500    0.0000 N.4     1  UNL1        0.2393
      6 C           6.3301    2.2500    0.0000 C.3     1  UNL1        0.0042
      7 C           6.3301    4.2500    0.0000 C.3     1  UNL1       -0.0417
      8 C           7.3301    3.2500    0.0000 C.3     1  UNL1       -0.0417
      9 C           5.3301    3.2500    0.0000 C.3     1  UNL1       -0.0417
     10 C           5.4641    1.7500    0.0000 C.3     1  UNL1        0.1324
     11 C           4.5981    0.2500    0.0000 C.2     1  UNL1        0.3395
     12 C           4.5981   -0.7500    0.0000 C.ar    1  UNL1        0.0627
     13 C           3.7320   -1.2500    0.0000 C.ar    1  UNL1       -0.0023
     14 C           5.4641   -1.2500    0.0000 C.ar    1  UNL1       -0.0441
     15 C           3.7320   -2.2500    0.0000 C.ar    1  UNL1        0.1623
     16 C           4.5981   -2.7500    0.0000 C.ar    1  UNL1        0.1615
     17 C           5.4641   -2.2500    0.0000 C.ar    1  UNL1       -0.0155
     18 C           2.0000   -2.2500    0.0000 C.3     1  UNL1        0.0790
     19 C           5.4641   -4.2500    0.0000 C.3     1  UNL1        0.0790
     20 H           6.5422    1.6674    0.0000 H       1  UNL1        0.0849
     21 H           6.9407    2.3577    0.0000 H       1  UNL1        0.0849
     22 H           6.9501    4.2500    0.0000 H       1  UNL1        0.0778
     23 H           6.3301    4.8700    0.0000 H       1  UNL1        0.0778
     24 H           5.7101    4.2500    0.0000 H       1  UNL1        0.0778
     25 H           7.3301    2.6300    0.0000 H       1  UNL1        0.0778
     26 H           7.9501    3.2500    0.0000 H       1  UNL1        0.0778
     27 H           7.3301    3.8700    0.0000 H       1  UNL1        0.0778
     28 H           5.3301    3.8700    0.0000 H       1  UNL1        0.0778
     29 H           4.7101    3.2500    0.0000 H       1  UNL1        0.0778
     30 H           5.3301    2.6300    0.0000 H       1  UNL1        0.0778
     31 H           5.2520    2.3326    0.0000 H       1  UNL1        0.0752
     32 H           4.8535    1.6423    0.0000 H       1  UNL1        0.0752
     33 H           3.1951   -0.9400    0.0000 H       1  UNL1        0.0663
     34 H           6.0010   -0.9400    0.0000 H       1  UNL1        0.0627
     35 H           6.0010   -2.5600    0.0000 H       1  UNL1        0.0655
     36 H           2.3100   -1.7131    0.0000 H       1  UNL1        0.0660
     37 H           1.4631   -1.9400    0.0000 H       1  UNL1        0.0660
     38 H           1.6900   -2.7869    0.0000 H       1  UNL1        0.0660
     39 H           5.1541   -4.7869    0.0000 H       1  UNL1        0.0660
     40 H           6.0010   -4.5600    0.0000 H       1  UNL1        0.0660
     41 H           5.7741   -3.7131    0.0000 H       1  UNL1        0.0660
@<TRIPOS>UNITY_ATOM_ATTR
5 1
charge 1
@<TRIPOS>BOND
     1     1    10    1
     2     1    11    1
     3     2    11    2
     4     3    15    1
     5     3    18    1
     6     4    16    1
     7     4    19    1
     8     5     6    1
     9     5     7    1
    10     5     8    1
    11     5     9    1
    12     6    10    1
    13     6    20    1
    14     6    21    1
    15     7    22    1
    16     7    23    1
    17     7    24    1
    18     8    25    1
    19     8    26    1
    20     8    27    1
    21     9    28    1
    22     9    29    1
    23     9    30    1
    24    10    31    1
    25    10    32    1
    26    11    12    1
    27    12    13   ar
    28    12    14   ar
    29    13    15   ar
    30    13    33    1
    31    14    17   ar
    32    14    34    1
    33    15    16   ar
    34    16    17   ar
    35    17    35    1
    36    18    36    1
    37    18    37    1
    38    18    38    1
    39    19    39    1
    40    19    40    1
    41    19    41    1
