@<TRIPOS>MOLECULE
IMPHY013494
 32 33 0 0 0
SMALL
GASTEIGER

@<TRIPOS>ATOM
      1 O           7.8010   -0.5381    0.0000 O.2     1  UNL1       -0.4953
      2 O           3.4030    0.9827    0.0000 O.2     1  UNL1       -0.5055
      3 O           5.1350   -2.0173    0.0000 O.2     1  UNL1       -0.2862
      4 O           2.5369   -0.5173    0.0000 O.3     1  UNL1       -0.4770
      5 O           3.4030   -2.0173    0.0000 O.2     1  UNL1       -0.2449
      6 C           6.8950    1.0174    0.0000 C.3     1  UNL1        0.0192
      7 C           7.8010    0.5035    0.0000 C.3     1  UNL1        0.1031
      8 C           6.0010    0.4827    0.0000 C.2     1  UNL1       -0.0209
      9 C           6.0010   -0.5173    0.0000 C.2     1  UNL1        0.0607
     10 C           5.1350    0.9827    0.0000 C.2     1  UNL1       -0.0038
     11 C           6.8834    2.0173    0.0000 C.3     1  UNL1       -0.0550
     12 C           8.6651    1.0068    0.0000 C.3     1  UNL1       -0.0273
     13 C           6.8950   -1.0520    0.0000 C.2     1  UNL1        0.0960
     14 C           5.1350   -1.0173    0.0000 C.2     1  UNL1        0.2067
     15 C           4.2690    0.4827    0.0000 C.2     1  UNL1        0.1378
     16 C           4.2690   -0.5173    0.0000 C.2     1  UNL1        0.1474
     17 C           5.1350    1.9827    0.0000 C.3     1  UNL1       -0.0359
     18 C           3.4030   -1.0173    0.0000 C.2     1  UNL1        0.3442
     19 H           6.3539    1.3201    0.0000 H       1  UNL1        0.0382
     20 H           8.3386    0.1946    0.0000 H       1  UNL1        0.0736
     21 H           7.5034    2.0245    0.0000 H       1  UNL1        0.0237
     22 H           6.8762    2.6373    0.0000 H       1  UNL1        0.0237
     23 H           6.2635    2.0101    0.0000 H       1  UNL1        0.0237
     24 H           8.9772    0.4711    0.0000 H       1  UNL1        0.0265
     25 H           9.2009    1.3189    0.0000 H       1  UNL1        0.0265
     26 H           8.3531    1.5426    0.0000 H       1  UNL1        0.0265
     27 H           6.8878   -1.6719    0.0000 H       1  UNL1        0.1031
     28 H           5.7550    1.9827    0.0000 H       1  UNL1        0.0279
     29 H           5.1350    2.6027    0.0000 H       1  UNL1        0.0279
     30 H           4.5150    1.9827    0.0000 H       1  UNL1        0.0279
     31 H           3.4030    1.6027    0.0000 H       1  UNL1        0.2922
     32 H           2.0000   -0.8273    0.0000 H       1  UNL1        0.2954
@<TRIPOS>BOND
     1     1     7    1
     2     1    13    1
     3     2    15    1
     4     2    31    1
     5     3    14    2
     6     4    18    1
     7     4    32    1
     8     5    18    2
     9     6     7    1
    10     6     8    1
    11     6    11    1
    12     6    19    1
    13     7    12    1
    14     7    20    1
    15     8     9    1
    16     8    10    2
    17     9    13    2
    18     9    14    1
    19    10    15    1
    20    10    17    1
    21    11    21    1
    22    11    22    1
    23    11    23    1
    24    12    24    1
    25    12    25    1
    26    12    26    1
    27    13    27    1
    28    14    16    1
    29    15    16    2
    30    16    18    1
    31    17    28    1
    32    17    29    1
    33    17    30    1
