@<TRIPOS>MOLECULE
IMPHY007064
 21 21 0 0 0
SMALL
GASTEIGER

@<TRIPOS>ATOM
      1 O           2.8660    1.0000    0.0000 O.3     1  UNL1       -0.4915
      2 O           4.5981    2.0000    0.0000 O.3     1  UNL1       -0.5033
      3 O           6.3301   -2.0000    0.0000 O.3     1  UNL1       -0.3904
      4 C           5.4641   -0.5000    0.0000 C.ar    1  UNL1       -0.0185
      5 C           5.4641    0.5000    0.0000 C.ar    1  UNL1       -0.0112
      6 C           3.7320    0.5000    0.0000 C.ar    1  UNL1        0.1613
      7 C           4.5981   -1.0000    0.0000 C.ar    1  UNL1       -0.0527
      8 C           4.5981    1.0000    0.0000 C.ar    1  UNL1        0.1588
      9 C           3.7320   -0.5000    0.0000 C.ar    1  UNL1       -0.0160
     10 C           6.3301   -1.0000    0.0000 C.3     1  UNL1        0.0693
     11 C           2.0000    0.5000    0.0000 C.3     1  UNL1        0.0790
     12 H           6.0010    0.8100    0.0000 H       1  UNL1        0.0659
     13 H           4.5981   -1.6200    0.0000 H       1  UNL1        0.0622
     14 H           3.1951   -0.8100    0.0000 H       1  UNL1        0.0655
     15 H           6.9407   -1.1077    0.0000 H       1  UNL1        0.0607
     16 H           6.5422   -0.4174    0.0000 H       1  UNL1        0.0607
     17 H           1.6900    1.0369    0.0000 H       1  UNL1        0.0660
     18 H           1.4631    0.1900    0.0000 H       1  UNL1        0.0660
     19 H           2.3100   -0.0369    0.0000 H       1  UNL1        0.0660
     20 H           5.1350    2.3100    0.0000 H       1  UNL1        0.2923
     21 H           6.8671   -2.3100    0.0000 H       1  UNL1        0.2098
@<TRIPOS>BOND
     1     1     6    1
     2     1    11    1
     3     2     8    1
     4     2    20    1
     5     3    10    1
     6     3    21    1
     7     4     5   ar
     8     4     7   ar
     9     4    10    1
    10     5     8   ar
    11     5    12    1
    12     6     8   ar
    13     6     9   ar
    14     7     9   ar
    15     7    13    1
    16     9    14    1
    17    10    15    1
    18    10    16    1
    19    11    17    1
    20    11    18    1
    21    11    19    1
