@<TRIPOS>MOLECULE
IMPHY001482
 84 88 0 0 0
SMALL
GASTEIGER

@<TRIPOS>ATOM
      1 O           4.7810   -2.7126    0.0000 O.3     1  UNL1       -0.3915
      2 O          11.0476    1.6809    0.0000 O.3     1  UNL1       -0.3888
      3 C           6.5251    0.3567    0.0000 C.3     1  UNL1       -0.0230
      4 C           5.6591   -0.1433    0.0000 C.3     1  UNL1       -0.0207
      5 C           6.5251    1.3567    0.0000 C.3     1  UNL1       -0.0294
      6 C           4.7931    0.3567    0.0000 C.3     1  UNL1       -0.0293
      7 C           7.4191    1.8913    0.0000 C.3     1  UNL1       -0.0255
      8 C           3.8831   -0.1502    0.0000 C.3     1  UNL1       -0.0231
      9 C           8.3252    1.3775    0.0000 C.3     1  UNL1       -0.0299
     10 C           3.8751   -1.1918    0.0000 C.3     1  UNL1       -0.0041
     11 C           7.4191   -0.1780    0.0000 C.3     1  UNL1       -0.0466
     12 C           5.6591    1.8567    0.0000 C.3     1  UNL1       -0.0489
     13 C           5.6752   -1.1848    0.0000 C.3     1  UNL1       -0.0204
     14 C           4.7931    1.3567    0.0000 C.3     1  UNL1       -0.0489
     15 C           8.3252    0.3358    0.0000 C.3     1  UNL1       -0.0488
     16 C           4.7771   -1.7126    0.0000 C.3     1  UNL1        0.0596
     17 C           9.0875    2.0782    0.0000 C.3     1  UNL1       -0.0093
     18 C           7.6292    2.9052    0.0000 C.3     1  UNL1       -0.0467
     19 C           2.9396   -1.7415    0.0000 C.3     1  UNL1       -0.0292
     20 C           6.8672   -0.5830    0.0000 C.3     1  UNL1       -0.0588
     21 C           6.3019   -0.9094    0.0000 C.3     1  UNL1       -0.0587
     22 C           2.9562    0.4139    0.0000 C.3     1  UNL1       -0.0470
     23 C           8.6582    3.0205    0.0000 C.3     1  UNL1       -0.0468
     24 C           6.5492    2.3846    0.0000 C.3     1  UNL1       -0.0590
     25 C           3.8908    0.8498    0.0000 C.3     1  UNL1       -0.0589
     26 C           2.0000   -1.1990    0.0000 C.3     1  UNL1       -0.0475
     27 C           2.0084   -0.1141    0.0000 C.3     1  UNL1       -0.0521
     28 C          10.0675    1.8796    0.0000 C.3     1  UNL1        0.0636
     29 C           2.4430   -2.6095    0.0000 C.3     1  UNL1       -0.0595
     30 C           3.4430   -2.6056    0.0000 C.3     1  UNL1       -0.0595
     31 C          10.2662    2.8596    0.0000 C.3     1  UNL1       -0.0361
     32 C           9.8689    0.8995    0.0000 C.3     1  UNL1       -0.0361
     33 H           7.2645    0.9373    0.0000 H       1  UNL1        0.0312
     34 H           5.5292    0.7817    0.0000 H       1  UNL1        0.0312
     35 H           9.1034    1.0358    0.0000 H       1  UNL1        0.0310
     36 H           3.8783   -2.0418    0.0000 H       1  UNL1        0.0336
     37 H           7.0145   -0.6478    0.0000 H       1  UNL1        0.0271
     38 H           7.8127   -0.6570    0.0000 H       1  UNL1        0.0271
     39 H           6.0576    2.3316    0.0000 H       1  UNL1        0.0268
     40 H           5.2606    2.3316    0.0000 H       1  UNL1        0.0268
     41 H           5.8932   -1.7652    0.0000 H       1  UNL1        0.0296
     42 H           6.2843   -1.0694    0.0000 H       1  UNL1        0.0296
     43 H           4.5810    1.9393    0.0000 H       1  UNL1        0.0268
     44 H           4.1825    1.2490    0.0000 H       1  UNL1        0.0268
     45 H           8.5342   -0.2478    0.0000 H       1  UNL1        0.0268
     46 H           8.9360    0.4419    0.0000 H       1  UNL1        0.0268
     47 H           5.3158   -2.0195    0.0000 H       1  UNL1        0.0596
     48 H           9.6164    2.7436    0.0000 H       1  UNL1        0.0331
     49 H           7.6253    3.5252    0.0000 H       1  UNL1        0.0271
     50 H           7.0122    2.9665    0.0000 H       1  UNL1        0.0271
     51 H           6.2847   -0.7951    0.0000 H       1  UNL1        0.0235
     52 H           7.0794   -1.1656    0.0000 H       1  UNL1        0.0235
     53 H           7.4498   -0.3709    0.0000 H       1  UNL1        0.0235
     54 H           5.8270   -1.3079    0.0000 H       1  UNL1        0.0235
     55 H           6.7004   -1.3843    0.0000 H       1  UNL1        0.0235
     56 H           6.7768   -0.5109    0.0000 H       1  UNL1        0.0235
     57 H           3.3645    0.8805    0.0000 H       1  UNL1        0.0271
     58 H           2.5663    0.8959    0.0000 H       1  UNL1        0.0271
     59 H           9.2463    3.2168    0.0000 H       1  UNL1        0.0269
     60 H           8.5248    3.6260    0.0000 H       1  UNL1        0.0269
     61 H           6.8551    2.9239    0.0000 H       1  UNL1        0.0235
     62 H           6.0099    2.6905    0.0000 H       1  UNL1        0.0235
     63 H           6.2434    1.8453    0.0000 H       1  UNL1        0.0235
     64 H           4.5108    0.8450    0.0000 H       1  UNL1        0.0235
     65 H           3.8956    1.4698    0.0000 H       1  UNL1        0.0235
     66 H           3.2708    0.8546    0.0000 H       1  UNL1        0.0235
     67 H           1.3900   -1.0882    0.0000 H       1  UNL1        0.0271
     68 H           1.7864   -1.7811    0.0000 H       1  UNL1        0.0271
     69 H           1.8038    0.4712    0.0000 H       1  UNL1        0.0266
     70 H           1.3967   -0.2154    0.0000 H       1  UNL1        0.0266
     71 H           1.9048   -2.3015    0.0000 H       1  UNL1        0.0235
     72 H           2.1350   -3.1476    0.0000 H       1  UNL1        0.0235
     73 H           2.9811   -2.9174    0.0000 H       1  UNL1        0.0235
     74 H           2.9072   -2.9177    0.0000 H       1  UNL1        0.0235
     75 H           3.7550   -3.1413    0.0000 H       1  UNL1        0.0235
     76 H           3.9787   -2.2935    0.0000 H       1  UNL1        0.0235
     77 H           5.3191   -3.0205    0.0000 H       1  UNL1        0.2098
     78 H          10.8738    2.7364    0.0000 H       1  UNL1        0.0257
     79 H          10.3894    3.4673    0.0000 H       1  UNL1        0.0257
     80 H           9.6586    2.9828    0.0000 H       1  UNL1        0.0257
     81 H           9.2612    1.0227    0.0000 H       1  UNL1        0.0257
     82 H           9.7457    0.2918    0.0000 H       1  UNL1        0.0257
     83 H          10.4765    0.7763    0.0000 H       1  UNL1        0.0257
     84 H          11.4581    2.1455    0.0000 H       1  UNL1        0.2101
@<TRIPOS>BOND
     1    16     1    1
     2     1    77    1
     3     2    28    1
     4     2    84    1
     5     3     4    1
     6     3     5    1
     7     3    11    1
     8     3    20    1
     9     4     6    1
    10     4    13    1
    11     4    21    1
    12     5     7    1
    13     5    12    1
    14     5    33    1
    15     6     8    1
    16     6    14    1
    17     6    34    1
    18     7     9    1
    19     7    18    1
    20     7    24    1
    21     8    10    1
    22     8    22    1
    23     8    25    1
    24     9    15    1
    25     9    17    1
    26     9    35    1
    27    10    16    1
    28    10    19    1
    29    10    36    1
    30    11    15    1
    31    11    37    1
    32    11    38    1
    33    12    14    1
    34    12    39    1
    35    12    40    1
    36    13    16    1
    37    13    41    1
    38    13    42    1
    39    14    43    1
    40    14    44    1
    41    15    45    1
    42    15    46    1
    43    16    47    1
    44    17    23    1
    45    17    28    1
    46    17    48    1
    47    18    23    1
    48    18    49    1
    49    18    50    1
    50    19    26    1
    51    19    29    1
    52    19    30    1
    53    20    51    1
    54    20    52    1
    55    20    53    1
    56    21    54    1
    57    21    55    1
    58    21    56    1
    59    22    27    1
    60    22    57    1
    61    22    58    1
    62    23    59    1
    63    23    60    1
    64    24    61    1
    65    24    62    1
    66    24    63    1
    67    25    64    1
    68    25    65    1
    69    25    66    1
    70    26    27    1
    71    26    67    1
    72    26    68    1
    73    27    69    1
    74    27    70    1
    75    28    31    1
    76    28    32    1
    77    29    71    1
    78    29    72    1
    79    29    73    1
    80    30    74    1
    81    30    75    1
    82    30    76    1
    83    31    78    1
    84    31    79    1
    85    31    80    1
    86    32    81    1
    87    32    82    1
    88    32    83    1
