@<TRIPOS>MOLECULE
IMPHY010812
 30 32 0 0 0
SMALL
GASTEIGER

@<TRIPOS>ATOM
      1 O           2.5836   -2.0894    0.0000 O.2     1  UNL1       -0.4626
      2 O           7.0321   -0.7878    0.0000 O.2     1  UNL1       -0.2832
      3 O           7.0479    1.2605    0.0000 O.2     1  UNL1       -0.2835
      4 C           4.3958   -0.2846    0.0000 C.ar    1  UNL1       -0.0025
      5 C           3.5298   -0.7846    0.0000 C.ar    1  UNL1        0.0309
      6 C           5.2619   -0.7846    0.0000 C.ar    1  UNL1        0.0364
      7 C           3.5298   -1.7846    0.0000 C.ar    1  UNL1        0.1359
      8 C           5.2619   -1.7846    0.0000 C.ar    1  UNL1       -0.0355
      9 C           2.5836   -0.4799    0.0000 C.ar    1  UNL1       -0.0044
     10 C           4.3958   -2.2846    0.0000 C.ar    1  UNL1       -0.0151
     11 C           4.3798    0.7569    0.0000 C.2     1  UNL1       -0.0465
     12 C           6.1719   -0.2778    0.0000 C.2     1  UNL1        0.2334
     13 C           5.2778    1.2846    0.0000 C.2     1  UNL1        0.0007
     14 C           6.1799    0.7638    0.0000 C.2     1  UNL1        0.2288
     15 C           2.0000   -1.2846    0.0000 C.ar    1  UNL1        0.0960
     16 C           6.1279   -2.2846    0.0000 C.3     1  UNL1       -0.0389
     17 C           2.2729    0.4706    0.0000 C.3     1  UNL1       -0.0361
     18 C           5.2740    2.2846    0.0000 C.3     1  UNL1       -0.0359
     19 H           4.3958   -2.9046    0.0000 H       1  UNL1        0.0657
     20 H           3.8393    1.0607    0.0000 H       1  UNL1        0.0628
     21 H           1.3800   -1.2846    0.0000 H       1  UNL1        0.1032
     22 H           5.8179   -2.8216    0.0000 H       1  UNL1        0.0278
     23 H           6.6648   -2.5946    0.0000 H       1  UNL1        0.0278
     24 H           6.4379   -1.7477    0.0000 H       1  UNL1        0.0278
     25 H           2.8623    0.6632    0.0000 H       1  UNL1        0.0279
     26 H           2.0803    1.0600    0.0000 H       1  UNL1        0.0279
     27 H           1.6836    0.2780    0.0000 H       1  UNL1        0.0279
     28 H           5.8940    2.2870    0.0000 H       1  UNL1        0.0279
     29 H           5.2716    2.9046    0.0000 H       1  UNL1        0.0279
     30 H           4.6540    2.2822    0.0000 H       1  UNL1        0.0279
@<TRIPOS>BOND
     1     1     7   ar
     2     1    15   ar
     3     2    12    2
     4     3    14    2
     5     4     5   ar
     6     4     6   ar
     7     4    11    1
     8     5     7   ar
     9     5     9   ar
    10     6     8   ar
    11     6    12    1
    12     7    10   ar
    13     8    10   ar
    14     8    16    1
    15     9    15   ar
    16     9    17    1
    17    10    19    1
    18    11    13    2
    19    11    20    1
    20    12    14    1
    21    13    14    1
    22    13    18    1
    23    15    21    1
    24    16    22    1
    25    16    23    1
    26    16    24    1
    27    17    25    1
    28    17    26    1
    29    17    27    1
    30    18    28    1
    31    18    29    1
    32    18    30    1
