@<TRIPOS>MOLECULE
IMPHY010690
 36 40 0 0 0
SMALL
GASTEIGER

@<TRIPOS>ATOM
      1 C           6.8822   -5.2546    0.0000 C.3     1  UNL1        0.0268
      2 C           5.6731   -5.9987    0.0000 C.3     1  UNL1       -0.0013
      3 C           6.8357   -4.0456    0.0000 C.3     1  UNL1       -0.0198
      4 C           3.4411   -5.9987    0.0000 C.3     1  UNL1       -0.0066
      5 C           4.5571   -5.3476    0.0000 C.3     1  UNL1       -0.0193
      6 C           7.9052   -3.3946    0.0000 C.3     1  UNL1       -0.0189
      7 C           3.4411   -7.2542    0.0000 C.3     1  UNL1       -0.0170
      8 C           9.0677   -4.0456    0.0000 C.3     1  UNL1       -0.0033
      9 C           7.9052   -2.1391    0.0000 C.3     1  UNL1        0.0144
     10 C           5.6731   -7.3007    0.0000 C.3     1  UNL1       -0.0005
     11 C           7.9052   -5.9522    0.0000 C.3     1  UNL1        0.0022
     12 C           5.6731   -3.3946    0.0000 C.3     1  UNL1       -0.0044
     13 C           4.5571   -4.0456    0.0000 C.3     1  UNL1       -0.0043
     14 C           4.5571   -7.9517    0.0000 C.3     1  UNL1       -0.0039
     15 C           2.2786   -7.9517    0.0000 C.3     1  UNL1        0.0248
     16 C          10.1373   -2.1391    0.0000 C.3     1  UNL1        0.0037
     17 C           9.0677   -5.3476    0.0000 C.3     1  UNL1       -0.0002
     18 C          10.1373   -3.3946    0.0000 C.3     1  UNL1        0.0000
     19 C           7.0217   -1.2090    0.0000 C.2     1  UNL1       -0.0445
     20 C           2.2786   -5.3476    0.0000 C.3     1  UNL1        0.0020
     21 C           6.8357   -6.5567    0.0000 C.3     1  UNL1        0.1816
     22 C           5.6731   -4.7431    0.0000 C.3     1  UNL1       -0.0002
     23 C           3.4411   -4.6966    0.0000 C.3     1  UNL1       -0.0006
     24 C           9.0677   -2.6971    0.0000 C.3     1  UNL1       -0.0003
     25 C           1.1625   -7.2542    0.0000 C.3     1  UNL1        0.1516
     26 C           1.1625   -5.9987    0.0000 C.3     1  UNL1        0.0329
     27 C           2.9761   -9.1607    0.0000 C.3     1  UNL1        0.0022
     28 C           1.4415   -9.3002    0.0000 C.3     1  UNL1        0.0022
     29 C           7.3472    0.0000    0.0000 C.2     1  UNL1       -0.0091
     30 C           5.8127   -1.5810    0.0000 C.3     1  UNL1        0.0263
     31 H           3.3946   -8.5562    0.0000 H       1  UNL1        0.0319
     32 H           4.5571   -6.6497    0.0000 H       1  UNL1        0.0318
     33 H           6.8357   -2.7436    0.0000 H       1  UNL1        0.0316
     34 H           7.9052   -4.6966    0.0000 H       1  UNL1        0.0319
     35 O           0.0000   -7.9517    0.0000 O.3     1  UNL1       -0.2232
     36 O           7.9982   -7.2542    0.0000 O.3     1  UNL1       -0.2204
@<TRIPOS>BOND
     1     1    11    1
     2     1    21    1
     3     1     2    1
     4     1     3    1
     5     2     5    1
     6     2    10    1
     7     2    22    1
     8     3     6    1
     9     3    12    1
    10     3    33    1
    11     4    20    1
    12     4    23    1
    13     4     7    1
    14     4     5    1
    15     5    13    1
    16     5    32    1
    17     6     9    1
    18     6     8    1
    19     6    34    1
    20     7    14    1
    21     7    15    1
    22     7    31    1
    23     8    17    1
    24     8    18    1
    25     8    24    1
    26     9    16    1
    27     9    19    1
    28    10    14    1
    29    11    17    1
    30    12    13    1
    31    15    25    1
    32    15    27    1
    33    15    28    1
    34    16    18    1
    35    19    29    2
    36    19    30    1
    37    20    26    1
    38    21    36    1
    39    25    26    1
    40    25    35    1
