@<TRIPOS>MOLECULE
IMPHY008038
 43 45 0 0 0
SMALL
GASTEIGER

@<TRIPOS>ATOM
      1 O           4.0584    2.3392    0.0000 O.3     1  UNL1       -0.3697
      2 O           1.7643   -1.2426    0.0000 O.3     1  UNL1       -0.3863
      3 C           5.2954    0.7384    0.0000 C.3     1  UNL1       -0.0003
      4 C           4.9534   -0.2013    0.0000 C.3     1  UNL1       -0.0012
      5 C           3.5806    0.3907    0.0000 C.3     1  UNL1        0.0910
      6 C           5.7383   -0.8113    0.0000 C.3     1  UNL1       -0.0328
      7 C           3.3218    1.3566    0.0000 C.3     1  UNL1        0.0650
      8 C           6.2888    0.7011    0.0000 C.3     1  UNL1       -0.0447
      9 C           6.5619   -0.2547    0.0000 C.3     1  UNL1       -0.0490
     10 C           2.3090   -0.4040    0.0000 C.3     1  UNL1        0.0897
     11 C           1.8902    1.1589    0.0000 C.3     1  UNL1       -0.0234
     12 C           1.5318    0.2254    0.0000 C.3     1  UNL1       -0.0195
     13 C           5.6374    1.6780    0.0000 C.3     1  UNL1       -0.0569
     14 C           5.7051   -1.8108    0.0000 C.3     1  UNL1       -0.0435
     15 C           2.7630   -1.2950    0.0000 C.3     1  UNL1       -0.0336
     16 C           6.5541   -2.3392    0.0000 C.3     1  UNL1       -0.0624
     17 C           4.8230   -2.2818    0.0000 C.3     1  UNL1       -0.0624
     18 H           4.6626   -1.0001    0.0000 H       1  UNL1        0.0336
     19 H           3.8006   -0.4304    0.0000 H       1  UNL1        0.0628
     20 H           6.2809   -1.1112    0.0000 H       1  UNL1        0.0307
     21 H           3.1018    2.1776    0.0000 H       1  UNL1        0.0601
     22 H           6.2467    1.3197    0.0000 H       1  UNL1        0.0272
     23 H           6.8995    0.8079    0.0000 H       1  UNL1        0.0272
     24 H           7.1368   -0.0226    0.0000 H       1  UNL1        0.0268
     25 H           6.8532   -0.8021    0.0000 H       1  UNL1        0.0268
     26 H           1.2824    1.2813    0.0000 H       1  UNL1        0.0291
     27 H           1.9092    1.7786    0.0000 H       1  UNL1        0.0291
     28 H           1.1941   -0.2946    0.0000 H       1  UNL1        0.0294
     29 H           0.9794    0.5068    0.0000 H       1  UNL1        0.0294
     30 H           5.0548    1.8901    0.0000 H       1  UNL1        0.0236
     31 H           5.8494    2.2607    0.0000 H       1  UNL1        0.0236
     32 H           6.2200    1.4660    0.0000 H       1  UNL1        0.0236
     33 H           5.1788   -1.4831    0.0000 H       1  UNL1        0.0298
     34 H           3.3154   -1.0135    0.0000 H       1  UNL1        0.0258
     35 H           3.0444   -1.8474    0.0000 H       1  UNL1        0.0258
     36 H           2.2105   -1.5764    0.0000 H       1  UNL1        0.0258
     37 H           5.1150   -2.8287    0.0000 H       1  UNL1        0.0232
     38 H           4.2761   -2.5738    0.0000 H       1  UNL1        0.0232
     39 H           6.8817   -1.8129    0.0000 H       1  UNL1        0.0232
     40 H           7.0804   -2.6669    0.0000 H       1  UNL1        0.0232
     41 H           4.5310   -1.7348    0.0000 H       1  UNL1        0.0232
     42 H           6.2264   -2.8656    0.0000 H       1  UNL1        0.0232
     43 H           1.1452   -1.2102    0.0000 H       1  UNL1        0.2103
@<TRIPOS>BOND
     1     1     5    1
     2     1     7    1
     3    10     2    1
     4     2    43    1
     5     3     4    1
     6     3     7    1
     7     3     8    1
     8     3    13    1
     9     4     5    1
    10     4     6    1
    11     4    18    1
    12     5    10    1
    13     5    19    1
    14     6     9    1
    15     6    14    1
    16     6    20    1
    17     7    11    1
    18     7    21    1
    19     8     9    1
    20     8    22    1
    21     8    23    1
    22     9    24    1
    23     9    25    1
    24    10    12    1
    25    10    15    1
    26    11    12    1
    27    11    26    1
    28    11    27    1
    29    12    28    1
    30    12    29    1
    31    13    30    1
    32    13    31    1
    33    13    32    1
    34    14    16    1
    35    14    17    1
    36    14    33    1
    37    15    34    1
    38    15    35    1
    39    15    36    1
    40    16    39    1
    41    16    40    1
    42    16    42    1
    43    17    37    1
    44    17    38    1
    45    17    41    1
