@<TRIPOS>MOLECULE
IMPHY008605
 162 173 0 0 0
SMALL
GASTEIGER

@<TRIPOS>ATOM
      1 O           5.9630   -3.6365    0.0000 O.3     1  UNL1       -0.3281
      2 O           9.0016   -4.4741    0.0000 O.3     1  UNL1       -0.4500
      3 O           7.7972   -5.6045    0.0000 O.3     1  UNL1       -0.4512
      4 O           7.8295   -1.7657    0.0000 O.3     1  UNL1       -0.4476
      5 O           6.1633   -1.8777    0.0000 O.3     1  UNL1       -0.4275
      6 O          13.4615    5.4554    0.0000 O.3     1  UNL1       -0.3289
      7 O           5.9624   -6.3781    0.0000 O.3     1  UNL1       -0.4584
      8 O          11.7294    3.4554    0.0000 O.3     1  UNL1       -0.4523
      9 O          13.4615    2.4554    0.0000 O.3     1  UNL1       -0.3852
     10 O          15.1935    3.4554    0.0000 O.3     1  UNL1       -0.3829
     11 O          15.1935    5.4554    0.0000 O.3     1  UNL1       -0.4287
     12 O          11.7294    6.4554    0.0000 O.3     1  UNL1       -0.4584
     13 O          10.5387   -5.3120    0.0000 O.2     1  UNL1       -0.2449
     14 O           7.5431   -7.5538    0.0000 O.2     1  UNL1       -0.2449
     15 O           8.2708   -0.0716    0.0000 O.2     1  UNL1       -0.2449
     16 O           4.5818   -2.5839    0.0000 O.2     1  UNL1       -0.2449
     17 O          10.8634    1.9554    0.0000 O.3     1  UNL1       -0.4476
     18 O           6.8771   -5.9739    0.0000 O.2     1  UNL1       -0.2449
     19 O          12.8794   -0.7000    0.0000 O.3     1  UNL1       -0.5028
     20 O          13.2352   -1.5222    0.0000 O.3     1  UNL1       -0.5028
     21 O          10.8634    4.9554    0.0000 O.2     1  UNL1       -0.2448
     22 O           9.0974   -9.7685    0.0000 O.3     1  UNL1       -0.5028
     23 O          12.7758    0.8414    0.0000 O.3     1  UNL1       -0.5009
     24 O          13.7911   -4.8095    0.0000 O.3     1  UNL1       -0.5032
     25 O          14.2880   -2.6528    0.0000 O.3     1  UNL1       -0.5009
     26 O           8.1885  -10.1702    0.0000 O.3     1  UNL1       -0.5028
     27 O          11.1969   -6.9185    0.0000 O.3     1  UNL1       -0.5032
     28 O          14.3275    6.9554    0.0000 O.2     1  UNL1       -0.2449
     29 O          10.9772   -8.9550    0.0000 O.3     1  UNL1       -0.5009
     30 O           6.3214  -11.0126    0.0000 O.3     1  UNL1       -0.5009
     31 O           4.6676   -9.8041    0.0000 O.3     1  UNL1       -0.5032
     32 O           9.9974    6.4554    0.0000 O.2     1  UNL1       -0.2450
     33 O           9.1313    0.9554    0.0000 O.3     1  UNL1       -0.5008
     34 O           2.3639    0.2587    0.0000 O.3     1  UNL1       -0.5032
     35 O           5.5269    1.6713    0.0000 O.3     1  UNL1       -0.5032
     36 O           7.3993    3.9554    0.0000 O.3     1  UNL1       -0.5032
     37 O           3.5376    1.8781    0.0000 O.3     1  UNL1       -0.5009
     38 O           7.3993    1.9554    0.0000 O.3     1  UNL1       -0.5008
     39 O          16.9256    9.4554    0.0000 O.3     1  UNL1       -0.5032
     40 O          18.6576    6.4554    0.0000 O.3     1  UNL1       -0.5032
     41 O          18.6576    8.4554    0.0000 O.3     1  UNL1       -0.5009
     42 O           9.1313    9.9554    0.0000 O.3     1  UNL1       -0.5032
     43 O          12.5954    9.9554    0.0000 O.3     1  UNL1       -0.5032
     44 O          10.8634   10.9554    0.0000 O.3     1  UNL1       -0.5009
     45 C           8.0204   -3.8584    0.0000 C.3     1  UNL1        0.1851
     46 C           7.3929   -4.6899    0.0000 C.3     1  UNL1        0.1730
     47 C           7.6067   -2.9025    0.0000 C.3     1  UNL1        0.2053
     48 C           6.3987   -4.5826    0.0000 C.3     1  UNL1        0.1371
     49 C           6.5711   -2.7908    0.0000 C.3     1  UNL1        0.2465
     50 C           5.8087   -5.3900    0.0000 C.3     1  UNL1        0.1226
     51 C          12.5954    3.9554    0.0000 C.3     1  UNL1        0.1609
     52 C          13.4615    3.4554    0.0000 C.3     1  UNL1        0.1262
     53 C          12.5954    4.9554    0.0000 C.3     1  UNL1        0.1360
     54 C          14.3275    3.9554    0.0000 C.3     1  UNL1        0.1466
     55 C          14.3275    4.9554    0.0000 C.3     1  UNL1        0.2342
     56 C          10.1567   -4.3879    0.0000 C.2     1  UNL1        0.3405
     57 C          11.7294    5.4554    0.0000 C.3     1  UNL1        0.1226
     58 C           7.6845   -6.5639    0.0000 C.2     1  UNL1        0.3405
     59 C           8.6830   -0.9826    0.0000 C.2     1  UNL1        0.3406
     60 C          11.0356   -3.6333    0.0000 C.ar    1  UNL1        0.0740
     61 C           9.8347   -0.8584    0.0000 C.ar    1  UNL1        0.0740
     62 C           8.4919   -7.1539    0.0000 C.ar    1  UNL1        0.0740
     63 C           5.1687   -1.7743    0.0000 C.2     1  UNL1        0.3417
     64 C          10.8357   -1.4414    0.0000 C.ar    1  UNL1        0.0458
     65 C          11.2957   -2.5045    0.0000 C.ar    1  UNL1        0.0458
     66 C           6.7699   -6.9681    0.0000 C.2     1  UNL1        0.3401
     67 C           8.3847   -8.1481    0.0000 C.ar    1  UNL1        0.0458
     68 C           6.6626   -7.9624    0.0000 C.ar    1  UNL1        0.0740
     69 C           7.4700   -8.5524    0.0000 C.ar    1  UNL1        0.0458
     70 C           9.8208    0.3481    0.0000 C.ar    1  UNL1       -0.0009
     71 C          11.9057   -4.4694    0.0000 C.ar    1  UNL1       -0.0017
     72 C          10.8634    3.9554    0.0000 C.2     1  UNL1        0.3434
     73 C          11.8920   -0.8584    0.0000 C.ar    1  UNL1        0.1708
     74 C           4.7609   -0.8612    0.0000 C.ar    1  UNL1        0.0662
     75 C          12.4439   -2.1335    0.0000 C.ar    1  UNL1        0.1708
     76 C           9.4380   -6.7182    0.0000 C.ar    1  UNL1       -0.0017
     77 C          10.8634    0.9554    0.0000 C.ar    1  UNL1        0.1743
     78 C           9.2161   -8.7756    0.0000 C.ar    1  UNL1        0.1708
     79 C          11.9060    0.3481    0.0000 C.ar    1  UNL1        0.2021
     80 C           9.9974    3.4554    0.0000 C.ar    1  UNL1        0.1085
     81 C          13.0621   -4.1250    0.0000 C.ar    1  UNL1        0.1628
     82 C          15.1935    6.4554    0.0000 C.2     1  UNL1        0.3417
     83 C          13.3330   -2.9492    0.0000 C.ar    1  UNL1        0.2012
     84 C           7.3743   -9.5896    0.0000 C.ar    1  UNL1        0.1708
     85 C           5.7035   -8.3687    0.0000 C.ar    1  UNL1       -0.0017
     86 C          10.2838   -7.3262    0.0000 C.ar    1  UNL1        0.1628
     87 C          10.1721   -8.3619    0.0000 C.ar    1  UNL1        0.2012
     88 C           9.9974    2.4554    0.0000 C.ar    1  UNL1        0.1876
     89 C           5.3478   -0.0515    0.0000 C.ar    1  UNL1       -0.0023
     90 C           3.7663   -0.7578    0.0000 C.ar    1  UNL1       -0.0023
     91 C          10.8634    6.9554    0.0000 C.2     1  UNL1        0.3395
     92 C           6.4248  -10.0180    0.0000 C.ar    1  UNL1        0.2012
     93 C           5.5838   -9.4034    0.0000 C.ar    1  UNL1        0.1628
     94 C          16.0595    6.9554    0.0000 C.ar    1  UNL1        0.0662
     95 C           9.1313    3.9554    0.0000 C.ar    1  UNL1        0.0013
     96 C           9.1313    1.9554    0.0000 C.ar    1  UNL1        0.2060
     97 C           3.3585    0.1553    0.0000 C.ar    1  UNL1        0.1628
     98 C           4.9400    0.8616    0.0000 C.ar    1  UNL1        0.1628
     99 C          10.8634    7.9554    0.0000 C.ar    1  UNL1        0.0661
    100 C           8.2653    3.4554    0.0000 C.ar    1  UNL1        0.1630
    101 C           3.9454    0.9650    0.0000 C.ar    1  UNL1        0.2006
    102 C           8.2653    2.4554    0.0000 C.ar    1  UNL1        0.2044
    103 C          16.9256    6.4554    0.0000 C.ar    1  UNL1       -0.0023
    104 C          16.0595    7.9554    0.0000 C.ar    1  UNL1       -0.0023
    105 C          11.7294    8.4554    0.0000 C.ar    1  UNL1       -0.0023
    106 C           9.9974    8.4554    0.0000 C.ar    1  UNL1       -0.0023
    107 C          16.9256    8.4554    0.0000 C.ar    1  UNL1        0.1628
    108 C          17.7916    6.9554    0.0000 C.ar    1  UNL1        0.1628
    109 C          17.7916    7.9554    0.0000 C.ar    1  UNL1        0.2006
    110 C           9.9974    9.4554    0.0000 C.ar    1  UNL1        0.1628
    111 C          11.7294    9.4554    0.0000 C.ar    1  UNL1        0.1628
    112 C          10.8634    9.9554    0.0000 C.ar    1  UNL1        0.2006
    113 H           8.1742   -4.6944    0.0000 H       1  UNL1        0.0813
    114 H           8.2373   -4.7875    0.0000 H       1  UNL1        0.0801
    115 H           7.1026   -2.2181    0.0000 H       1  UNL1        0.0837
    116 H           5.5529   -4.4980    0.0000 H       1  UNL1        0.0670
    117 H           5.9543   -2.7278    0.0000 H       1  UNL1        0.1098
    118 H           5.4199   -4.9071    0.0000 H       1  UNL1        0.0725
    119 H           5.2416   -5.6406    0.0000 H       1  UNL1        0.0725
    120 H          12.5954    3.3354    0.0000 H       1  UNL1        0.0789
    121 H          13.9984    3.1454    0.0000 H       1  UNL1        0.0659
    122 H          12.5954    5.5754    0.0000 H       1  UNL1        0.0670
    123 H          14.8644    4.2654    0.0000 H       1  UNL1        0.0683
    124 H          14.3275    5.5754    0.0000 H       1  UNL1        0.1085
    125 H          11.1188    5.5631    0.0000 H       1  UNL1        0.0725
    126 H          11.5174    4.8728    0.0000 H       1  UNL1        0.0725
    127 H          13.9984    2.1454    0.0000 H       1  UNL1        0.2101
    128 H          15.7304    3.7654    0.0000 H       1  UNL1        0.2102
    129 H           9.2815    0.6540    0.0000 H       1  UNL1        0.0664
    130 H          11.7595   -5.0719    0.0000 H       1  UNL1        0.0664
    131 H           9.4974   -6.1010    0.0000 H       1  UNL1        0.0664
    132 H           5.2072   -7.9971    0.0000 H       1  UNL1        0.0664
    133 H           5.9645   -0.1156    0.0000 H       1  UNL1        0.0663
    134 H           3.4024   -1.2598    0.0000 H       1  UNL1        0.0663
    135 H           9.1313    4.5754    0.0000 H       1  UNL1        0.0665
    136 H          13.1004   -0.1207    0.0000 H       1  UNL1        0.2923
    137 H          13.8088   -1.7576    0.0000 H       1  UNL1        0.2923
    138 H           9.5937  -10.1401    0.0000 H       1  UNL1        0.2923
    139 H          13.3104    0.5273    0.0000 H       1  UNL1        0.2924
    140 H          13.6495   -5.4131    0.0000 H       1  UNL1        0.2923
    141 H          14.7433   -3.0737    0.0000 H       1  UNL1        0.2924
    142 H           8.1291  -10.7874    0.0000 H       1  UNL1        0.2923
    143 H          16.9256    5.8354    0.0000 H       1  UNL1        0.0663
    144 H          15.5226    8.2654    0.0000 H       1  UNL1        0.0663
    145 H          11.6989   -7.2823    0.0000 H       1  UNL1        0.2923
    146 H          11.5452   -8.7065    0.0000 H       1  UNL1        0.2924
    147 H           5.7553  -11.2654    0.0000 H       1  UNL1        0.2924
    148 H           4.1684   -9.4364    0.0000 H       1  UNL1        0.2923
    149 H          12.2663    8.1454    0.0000 H       1  UNL1        0.0663
    150 H           9.4604    8.1454    0.0000 H       1  UNL1        0.0663
    151 H           8.5944    0.6454    0.0000 H       1  UNL1        0.2924
    152 H           2.0000   -0.2433    0.0000 H       1  UNL1        0.2923
    153 H           5.2741    2.2374    0.0000 H       1  UNL1        0.2923
    154 H           7.3993    4.5754    0.0000 H       1  UNL1        0.2923
    155 H           2.9209    1.9422    0.0000 H       1  UNL1        0.2924
    156 H           6.8624    2.2654    0.0000 H       1  UNL1        0.2924
    157 H          17.4625    9.7654    0.0000 H       1  UNL1        0.2923
    158 H          18.6576    5.8354    0.0000 H       1  UNL1        0.2923
    159 H          19.1946    8.1454    0.0000 H       1  UNL1        0.2924
    160 H           8.5944    9.6454    0.0000 H       1  UNL1        0.2923
    161 H          12.5954   10.5754    0.0000 H       1  UNL1        0.2923
    162 H          10.3265   11.2654    0.0000 H       1  UNL1        0.2924
@<TRIPOS>BOND
     1     1    48    1
     2     1    49    1
     3     2    45    1
     4     2    56    1
     5     3    46    1
     6     3    58    1
     7     4    47    1
     8     4    59    1
     9    49     5    1
    10     5    63    1
    11     6    53    1
    12     6    55    1
    13     7    50    1
    14     7    66    1
    15    51     8    1
    16     8    72    1
    17    52     9    1
    18     9   127    1
    19    54    10    1
    20    10   128    1
    21    55    11    1
    22    11    82    1
    23    12    57    1
    24    12    91    1
    25    13    56    2
    26    14    58    2
    27    15    59    2
    28    16    63    2
    29    17    77    1
    30    17    88    1
    31    18    66    2
    32    19    73    1
    33    19   136    1
    34    20    75    1
    35    20   137    1
    36    21    72    2
    37    22    78    1
    38    22   138    1
    39    23    79    1
    40    23   139    1
    41    24    81    1
    42    24   140    1
    43    25    83    1
    44    25   141    1
    45    26    84    1
    46    26   142    1
    47    27    86    1
    48    27   145    1
    49    28    82    2
    50    29    87    1
    51    29   146    1
    52    30    92    1
    53    30   147    1
    54    31    93    1
    55    31   148    1
    56    32    91    2
    57    33    96    1
    58    33   151    1
    59    34    97    1
    60    34   152    1
    61    35    98    1
    62    35   153    1
    63    36   100    1
    64    36   154    1
    65    37   101    1
    66    37   155    1
    67    38   102    1
    68    38   156    1
    69    39   107    1
    70    39   157    1
    71    40   108    1
    72    40   158    1
    73    41   109    1
    74    41   159    1
    75    42   110    1
    76    42   160    1
    77    43   111    1
    78    43   161    1
    79    44   112    1
    80    44   162    1
    81    45    46    1
    82    45    47    1
    83    45   113    1
    84    46    48    1
    85    46   114    1
    86    47    49    1
    87    47   115    1
    88    48    50    1
    89    48   116    1
    90    49   117    1
    91    50   118    1
    92    50   119    1
    93    51    52    1
    94    51    53    1
    95    51   120    1
    96    52    54    1
    97    52   121    1
    98    53    57    1
    99    53   122    1
   100    54    55    1
   101    54   123    1
   102    55   124    1
   103    56    60    1
   104    57   125    1
   105    57   126    1
   106    58    62    1
   107    59    61    1
   108    60    65   ar
   109    60    71   ar
   110    61    64   ar
   111    61    70   ar
   112    62    67   ar
   113    62    76   ar
   114    63    74    1
   115    64    65    1
   116    64    73   ar
   117    65    75   ar
   118    66    68    1
   119    67    69    1
   120    67    78   ar
   121    68    69   ar
   122    68    85   ar
   123    69    84   ar
   124    70    77   ar
   125    70   129    1
   126    71    81   ar
   127    71   130    1
   128    72    80    1
   129    73    79   ar
   130    74    89   ar
   131    74    90   ar
   132    75    83   ar
   133    76    86   ar
   134    76   131    1
   135    77    79   ar
   136    78    87   ar
   137    80    88   ar
   138    80    95   ar
   139    81    83   ar
   140    82    94    1
   141    84    92   ar
   142    85    93   ar
   143    85   132    1
   144    86    87   ar
   145    88    96   ar
   146    89    98   ar
   147    89   133    1
   148    90    97   ar
   149    90   134    1
   150    91    99    1
   151    92    93   ar
   152    94   103   ar
   153    94   104   ar
   154    95   100   ar
   155    95   135    1
   156    96   102   ar
   157    97   101   ar
   158    98   101   ar
   159    99   105   ar
   160    99   106   ar
   161   100   102   ar
   162   103   108   ar
   163   103   143    1
   164   104   107   ar
   165   104   144    1
   166   105   111   ar
   167   105   149    1
   168   106   110   ar
   169   106   150    1
   170   107   109   ar
   171   108   109   ar
   172   110   112   ar
   173   111   112   ar
