@<TRIPOS>MOLECULE
IMPHY010096
 37 38 0 0 0
SMALL
GASTEIGER

@<TRIPOS>ATOM
      1 O           6.2011   -1.0590    0.0000 O.2     1  UNL1       -0.4669
      2 O           3.7320    1.6081    0.0000 O.2     1  UNL1       -0.2968
      3 C           2.8660    1.1081    0.0000 C.3     1  UNL1        0.0153
      4 C           2.8660    2.1081    0.0000 C.3     1  UNL1       -0.0403
      5 C           3.7320   -0.3919    0.0000 C.3     1  UNL1        0.0348
      6 C           3.7320    2.6081    0.0000 C.3     1  UNL1       -0.0339
      7 C           4.5981   -0.8919    0.0000 C.ar    1  UNL1        0.0038
      8 C           3.7320    0.6081    0.0000 C.2     1  UNL1        0.1405
      9 C           5.4641   -0.3919    0.0000 C.ar    1  UNL1        0.1126
     10 C           5.4641    0.6081    0.0000 C.3     1  UNL1        0.0267
     11 C           2.0000    0.6081    0.0000 C.3     1  UNL1       -0.0557
     12 C           4.5981    1.1081    0.0000 C.2     1  UNL1       -0.0693
     13 C           4.5981    2.1081    0.0000 C.2     1  UNL1       -0.0846
     14 C           4.8073   -1.8638    0.0000 C.ar    1  UNL1       -0.0089
     15 C           5.7960   -1.9668    0.0000 C.ar    1  UNL1        0.0953
     16 C           4.3929    0.5442    0.0000 C.3     1  UNL1       -0.0434
     17 C           4.1394   -2.6081    0.0000 C.3     1  UNL1       -0.0364
     18 H           2.8660    0.4881    0.0000 H       1  UNL1        0.0375
     19 H           2.6540    2.6907    0.0000 H       1  UNL1        0.0275
     20 H           2.2554    2.0004    0.0000 H       1  UNL1        0.0275
     21 H           3.1215   -0.2843    0.0000 H       1  UNL1        0.0391
     22 H           3.5200   -0.9746    0.0000 H       1  UNL1        0.0391
     23 H           4.1306    3.0830    0.0000 H       1  UNL1        0.0308
     24 H           3.3335    3.0830    0.0000 H       1  UNL1        0.0308
     25 H           6.0747    0.5004    0.0000 H       1  UNL1        0.0389
     26 H           5.6762    1.1907    0.0000 H       1  UNL1        0.0389
     27 H           1.6900    1.1450    0.0000 H       1  UNL1        0.0236
     28 H           1.4631    0.2981    0.0000 H       1  UNL1        0.0236
     29 H           2.3100    0.0711    0.0000 H       1  UNL1        0.0236
     30 H           5.1350    2.4181    0.0000 H       1  UNL1        0.0572
     31 H           6.1060   -2.5038    0.0000 H       1  UNL1        0.1032
     32 H           3.8102    0.7563    0.0000 H       1  UNL1        0.0274
     33 H           4.1808   -0.0384    0.0000 H       1  UNL1        0.0274
     34 H           4.9755    0.3322    0.0000 H       1  UNL1        0.0274
     35 H           3.6780   -2.1940    0.0000 H       1  UNL1        0.0279
     36 H           3.7254   -3.0695    0.0000 H       1  UNL1        0.0279
     37 H           4.6009   -3.0221    0.0000 H       1  UNL1        0.0279
@<TRIPOS>BOND
     1     1     9   ar
     2     1    15   ar
     3     2     8    2
     4     3     4    1
     5     3     8    1
     6     3    11    1
     7     3    18    1
     8     4     6    1
     9     4    19    1
    10     4    20    1
    11     5     7    1
    12     5     8    1
    13     5    21    1
    14     5    22    1
    15     6    13    1
    16     6    23    1
    17     6    24    1
    18     7     9   ar
    19     7    14   ar
    20     9    10    1
    21    10    12    1
    22    10    25    1
    23    10    26    1
    24    11    27    1
    25    11    28    1
    26    11    29    1
    27    12    13    2
    28    12    16    1
    29    13    30    1
    30    14    15   ar
    31    14    17    1
    32    15    31    1
    33    16    32    1
    34    16    33    1
    35    16    34    1
    36    17    35    1
    37    17    36    1
    38    17    37    1
