@<TRIPOS>MOLECULE
IMPHY014923
 29 28 0 0 0
SMALL
GASTEIGER

@<TRIPOS>ATOM
      1 O           2.5369    0.4400    0.0000 O.3     1  UNL1       -0.3910
      2 C           6.0010    0.4400    0.0000 C.3     1  UNL1       -0.0285
      3 C           6.8671   -0.0600    0.0000 C.3     1  UNL1       -0.0308
      4 C           5.1350   -0.0600    0.0000 C.2     1  UNL1       -0.0741
      5 C           7.7331    0.4400    0.0000 C.2     1  UNL1       -0.0850
      6 C           8.5991   -0.0600    0.0000 C.2     1  UNL1       -0.0796
      7 C           5.1350   -1.0600    0.0000 C.3     1  UNL1       -0.0437
      8 C           4.2690    0.4400    0.0000 C.2     1  UNL1       -0.0600
      9 C           9.4651    0.4400    0.0000 C.3     1  UNL1       -0.0440
     10 C           8.5991   -1.0600    0.0000 C.3     1  UNL1       -0.0440
     11 C           3.4030   -0.0600    0.0000 C.3     1  UNL1        0.0626
     12 H           6.3996    0.9149    0.0000 H       1  UNL1        0.0313
     13 H           5.6025    0.9149    0.0000 H       1  UNL1        0.0313
     14 H           6.4685   -0.5349    0.0000 H       1  UNL1        0.0310
     15 H           7.2656   -0.5349    0.0000 H       1  UNL1        0.0310
     16 H           7.7331    1.0600    0.0000 H       1  UNL1        0.0572
     17 H           4.5150   -1.0600    0.0000 H       1  UNL1        0.0274
     18 H           5.1350   -1.6800    0.0000 H       1  UNL1        0.0274
     19 H           5.7550   -1.0600    0.0000 H       1  UNL1        0.0274
     20 H           4.2690    1.0600    0.0000 H       1  UNL1        0.0594
     21 H           9.7751   -0.0969    0.0000 H       1  UNL1        0.0274
     22 H          10.0021    0.7500    0.0000 H       1  UNL1        0.0274
     23 H           9.1551    0.9769    0.0000 H       1  UNL1        0.0274
     24 H           7.9791   -1.0600    0.0000 H       1  UNL1        0.0274
     25 H           8.5991   -1.6800    0.0000 H       1  UNL1        0.0274
     26 H           9.2191   -1.0600    0.0000 H       1  UNL1        0.0274
     27 H           3.0044   -0.5349    0.0000 H       1  UNL1        0.0601
     28 H           3.8015   -0.5349    0.0000 H       1  UNL1        0.0601
     29 H           2.0000    0.1300    0.0000 H       1  UNL1        0.2098
@<TRIPOS>BOND
     1     1    11    1
     2     1    29    1
     3     2     3    1
     4     2     4    1
     5     2    12    1
     6     2    13    1
     7     3     5    1
     8     3    14    1
     9     3    15    1
    10     4     7    1
    11     4     8    2
    12     5     6    2
    13     5    16    1
    14     6     9    1
    15     6    10    1
    16     7    17    1
    17     7    18    1
    18     7    19    1
    19     8    11    1
    20     8    20    1
    21     9    21    1
    22     9    22    1
    23     9    23    1
    24    10    24    1
    25    10    25    1
    26    10    26    1
    27    11    27    1
    28    11    28    1
