@<TRIPOS>MOLECULE
IMPHY002254
 92 96 0 0 0
SMALL
GASTEIGER

@<TRIPOS>ATOM
      1 O           4.9872    2.0225    0.0000 O.3     1  UNL1       -0.3566
      2 O           5.7378    0.1307    0.0000 O.3     1  UNL1       -0.3880
      3 O           7.5010    2.2985    0.0000 O.3     1  UNL1       -0.3821
      4 O           6.7988    2.5810    0.0000 O.3     1  UNL1       -0.4567
      5 O           6.8801   -0.5478    0.0000 O.3     1  UNL1       -0.4529
      6 O           8.1291   -0.9107    0.0000 O.3     1  UNL1       -0.4542
      7 O           9.2001    1.6179    0.0000 O.3     1  UNL1       -0.4539
      8 O           8.3973    0.7400    0.0000 O.3     1  UNL1       -0.4639
      9 O           4.3860   -0.4068    0.0000 O.2     1  UNL1       -0.2930
     10 O           2.6981   -0.5371    0.0000 O.3     1  UNL1       -0.4582
     11 O           8.1791    3.6273    0.0000 O.2     1  UNL1       -0.2512
     12 O           6.0975   -2.3800    0.0000 O.2     1  UNL1       -0.2511
     13 O           8.6009   -2.5956    0.0000 O.2     1  UNL1       -0.2505
     14 O          10.5400    0.5203    0.0000 O.2     1  UNL1       -0.2512
     15 O           8.9639   -0.8968    0.0000 O.2     1  UNL1       -0.2512
     16 O           2.0000   -2.1415    0.0000 O.2     1  UNL1       -0.2449
     17 N           5.3785   -2.7335    0.0000 N.ar    1  UNL1       -0.2588
     18 C           6.2121    1.9382    0.0000 C.3     1  UNL1        0.1446
     19 C           6.6965    1.0677    0.0000 C.3     1  UNL1        0.1231
     20 C           5.6354    1.1254    0.0000 C.3     1  UNL1        0.1002
     21 C           7.2755    1.3242    0.0000 C.3     1  UNL1        0.1356
     22 C           4.6514    0.9679    0.0000 C.3     1  UNL1        0.0818
     23 C           7.4029    1.7841    0.0000 C.3     1  UNL1        0.1587
     24 C           3.8498    1.5600    0.0000 C.3     1  UNL1        0.1136
     25 C           6.2127    0.1969    0.0000 C.3     1  UNL1        0.1759
     26 C           7.9610    0.3055    0.0000 C.3     1  UNL1        0.1742
     27 C           8.2646    1.2647    0.0000 C.3     1  UNL1        0.1799
     28 C           5.2177    0.1483    0.0000 C.2     1  UNL1        0.1829
     29 C           7.4523    0.4129    0.0000 C.3     1  UNL1        0.1083
     30 C           8.1667    1.7778    0.0000 C.3     1  UNL1       -0.0296
     31 C           3.0312    0.6447    0.0000 C.3     1  UNL1        0.1222
     32 C           3.2739    2.3775    0.0000 C.3     1  UNL1       -0.0318
     33 C           7.1869    3.5026    0.0000 C.2     1  UNL1        0.3043
     34 C           6.5689   -1.4981    0.0000 C.2     1  UNL1        0.3046
     35 C           7.7458   -2.0772    0.0000 C.2     1  UNL1        0.3110
     36 C          10.1869    1.4559    0.0000 C.2     1  UNL1        0.3044
     37 C           9.1530    0.0851    0.0000 C.2     1  UNL1        0.3040
     38 C           6.8889   -2.9566    0.0000 C.3     1  UNL1        0.0616
     39 C           2.9181   -1.7451    0.0000 C.2     1  UNL1        0.3410
     40 C           6.5828    4.2996    0.0000 C.3     1  UNL1        0.0332
     41 C           7.1761   -2.4748    0.0000 C.3     1  UNL1        0.0333
     42 C           5.7327   -3.3701    0.0000 C.3     1  UNL1        0.0119
     43 C          10.8206    2.2295    0.0000 C.3     1  UNL1        0.0332
     44 C          10.1350   -0.1041    0.0000 C.3     1  UNL1        0.0332
     45 C           3.6465   -2.7335    0.0000 C.ar    1  UNL1        0.0805
     46 C           7.6286   -3.6295    0.0000 C.3     1  UNL1       -0.0517
     47 C           4.5125   -3.2335    0.0000 C.ar    1  UNL1        0.0588
     48 C           6.1016   -4.2996    0.0000 C.3     1  UNL1       -0.0562
     49 C           3.6465   -1.7335    0.0000 C.ar    1  UNL1       -0.0446
     50 C           4.5125   -1.2335    0.0000 C.ar    1  UNL1       -0.0428
     51 C           5.3785   -1.7335    0.0000 C.ar    1  UNL1        0.0279
     52 H           6.1604    0.7957    0.0000 H       1  UNL1        0.0631
     53 H           4.2061    0.5364    0.0000 H       1  UNL1        0.0434
     54 H           7.8174    2.2452    0.0000 H       1  UNL1        0.0782
     55 H           5.9737   -0.3752    0.0000 H       1  UNL1        0.0824
     56 H           8.6585   -0.1801    0.0000 H       1  UNL1        0.0803
     57 H           8.7147    0.8384    0.0000 H       1  UNL1        0.0811
     58 H           6.9711    0.0219    0.0000 H       1  UNL1        0.0707
     59 H           7.7538   -0.1289    0.0000 H       1  UNL1        0.0707
     60 H           8.4479    1.2252    0.0000 H       1  UNL1        0.0259
     61 H           8.7193    2.0589    0.0000 H       1  UNL1        0.0259
     62 H           7.8856    2.3303    0.0000 H       1  UNL1        0.0259
     63 H           2.7509    1.1977    0.0000 H       1  UNL1        0.0727
     64 H           3.5747    0.3463    0.0000 H       1  UNL1        0.0727
     65 H           3.7808    2.7345    0.0000 H       1  UNL1        0.0259
     66 H           2.9168    2.8844    0.0000 H       1  UNL1        0.0259
     67 H           2.7670    2.0204    0.0000 H       1  UNL1        0.0259
     68 H           5.4845   -0.4352    0.0000 H       1  UNL1        0.2099
     69 H           8.0940    2.4794    0.0000 H       1  UNL1        0.2104
     70 H           6.8641   -3.5761    0.0000 H       1  UNL1        0.0417
     71 H           7.0769    4.6741    0.0000 H       1  UNL1        0.0342
     72 H           6.2083    4.7937    0.0000 H       1  UNL1        0.0342
     73 H           6.0887    3.9250    0.0000 H       1  UNL1        0.0342
     74 H           6.6496   -2.8021    0.0000 H       1  UNL1        0.0342
     75 H           7.5034   -3.0013    0.0000 H       1  UNL1        0.0342
     76 H           7.7026   -2.1474    0.0000 H       1  UNL1        0.0342
     77 H           5.3481   -3.8564    0.0000 H       1  UNL1        0.0369
     78 H          11.3002    1.8366    0.0000 H       1  UNL1        0.0342
     79 H          11.2135    2.7091    0.0000 H       1  UNL1        0.0342
     80 H          10.3410    2.6224    0.0000 H       1  UNL1        0.0342
     81 H          10.0177   -0.7129    0.0000 H       1  UNL1        0.0342
     82 H          10.7438   -0.2214    0.0000 H       1  UNL1        0.0342
     83 H          10.2523    0.5047    0.0000 H       1  UNL1        0.0342
     84 H           7.2114   -4.0881    0.0000 H       1  UNL1        0.0238
     85 H           8.0873   -4.0467    0.0000 H       1  UNL1        0.0238
     86 H           8.0458   -3.1708    0.0000 H       1  UNL1        0.0238
     87 H           5.5253   -4.5283    0.0000 H       1  UNL1        0.0236
     88 H           6.3303   -4.8758    0.0000 H       1  UNL1        0.0236
     89 H           6.6779   -4.0709    0.0000 H       1  UNL1        0.0236
     90 H           3.1095   -1.4235    0.0000 H       1  UNL1        0.0627
     91 H           4.5125   -0.6135    0.0000 H       1  UNL1        0.0633
     92 H           5.9154   -1.4235    0.0000 H       1  UNL1        0.0829
@<TRIPOS>BOND
     1    18     1    1
     2     1    24    1
     3    20     2    1
     4     2    68    1
     5    21     3    1
     6     3    69    1
     7    23     4    1
     8     4    33    1
     9    25     5    1
    10     5    34    1
    11     6    26    1
    12     6    35    1
    13    27     7    1
    14     7    36    1
    15     8    29    1
    16     8    37    1
    17     9    28    2
    18    10    31    1
    19    10    39    1
    20    11    33    2
    21    12    34    2
    22    13    35    2
    23    14    36    2
    24    15    37    2
    25    16    39    2
    26    17    47   ar
    27    17    51   ar
    28    18    19    1
    29    18    20    1
    30    18    21    1
    31    19    23    1
    32    19    25    1
    33    19    29    1
    34    20    22    1
    35    20    52    1
    36    21    26    1
    37    21    30    1
    38    22    24    1
    39    22    28    1
    40    22    53    1
    41    23    27    1
    42    23    54    1
    43    24    31    1
    44    24    32    1
    45    25    28    1
    46    25    55    1
    47    26    27    1
    48    26    56    1
    49    27    57    1
    50    29    58    1
    51    29    59    1
    52    30    60    1
    53    30    61    1
    54    30    62    1
    55    31    63    1
    56    31    64    1
    57    32    65    1
    58    32    66    1
    59    32    67    1
    60    33    40    1
    61    34    41    1
    62    35    38    1
    63    36    43    1
    64    37    44    1
    65    38    42    1
    66    38    46    1
    67    38    70    1
    68    39    45    1
    69    40    71    1
    70    40    72    1
    71    40    73    1
    72    41    74    1
    73    41    75    1
    74    41    76    1
    75    42    47    1
    76    42    48    1
    77    42    77    1
    78    43    78    1
    79    43    79    1
    80    43    80    1
    81    44    81    1
    82    44    82    1
    83    44    83    1
    84    45    47   ar
    85    45    49   ar
    86    46    84    1
    87    46    85    1
    88    46    86    1
    89    48    87    1
    90    48    88    1
    91    48    89    1
    92    49    50   ar
    93    49    90    1
    94    50    51   ar
    95    50    91    1
    96    51    92    1
