@<TRIPOS>MOLECULE
IMPHY002687
 47 51 0 0 0
SMALL
GASTEIGER

@<TRIPOS>ATOM
      1 O           7.4749   -0.9125    0.0000 O.3     1  UNL1       -0.3743
      2 O           6.2532   -1.6141    0.0000 O.3     1  UNL1       -0.4672
      3 O           4.6454   -0.7770    0.0000 O.2     1  UNL1       -0.2497
      4 N           4.1793    1.9509    0.0000 N.3     1  UNL1       -0.2942
      5 N           5.0226   -1.2704    0.0000 N.ar    1  UNL1       -0.3567
      6 C           6.4098    1.0270    0.0000 C.3     1  UNL1        0.0059
      7 C           6.0271    0.1031    0.0000 C.3     1  UNL1        0.1372
      8 C           6.0271    1.9509    0.0000 C.3     1  UNL1       -0.0322
      9 C           7.3540    1.2922    0.0000 C.2     1  UNL1       -0.0528
     10 C           5.1032   -0.2796    0.0000 C.ar    1  UNL1        0.0413
     11 C           5.1032    2.3336    0.0000 C.3     1  UNL1        0.0001
     12 C           5.9568    2.5380    0.0000 C.3     1  UNL1        0.0207
     13 C           6.5073   -0.7521    0.0000 C.3     1  UNL1        0.0698
     14 C           4.1793    0.1031    0.0000 C.ar    1  UNL1       -0.0040
     15 C           3.7966    1.0270    0.0000 C.3     1  UNL1        0.0266
     16 C           5.6444   -0.8208    0.0000 C.2     1  UNL1        0.3217
     17 C           8.1516    0.7214    0.0000 C.2     1  UNL1       -0.0579
     18 C           3.5357   -0.6545    0.0000 C.ar    1  UNL1        0.0044
     19 C           4.0558   -1.5016    0.0000 C.ar    1  UNL1        0.0470
     20 C           8.2053   -0.2579    0.0000 C.3     1  UNL1        0.0662
     21 C           2.5003   -0.6665    0.0000 C.ar    1  UNL1       -0.0523
     22 C           3.5766   -2.4195    0.0000 C.ar    1  UNL1       -0.0378
     23 C           2.0000   -1.5731    0.0000 C.ar    1  UNL1       -0.0611
     24 C           2.5418   -2.4555    0.0000 C.ar    1  UNL1       -0.0598
     25 C           5.8705   -2.5380    0.0000 C.3     1  UNL1        0.0817
     26 H           5.7898    1.0270    0.0000 H       1  UNL1        0.0362
     27 H           6.6418    2.0318    0.0000 H       1  UNL1        0.0284
     28 H           6.1080    2.5656    0.0000 H       1  UNL1        0.0284
     29 H           5.4806    2.8254    0.0000 H       1  UNL1        0.0427
     30 H           4.7258    2.8254    0.0000 H       1  UNL1        0.0427
     31 H           6.4435    2.9221    0.0000 H       1  UNL1        0.0473
     32 H           5.6631    3.0840    0.0000 H       1  UNL1        0.0473
     33 H           5.9125   -0.9272    0.0000 H       1  UNL1        0.0575
     34 H           6.5451   -1.3709    0.0000 H       1  UNL1        0.0575
     35 H           3.3048    1.4044    0.0000 H       1  UNL1        0.0476
     36 H           3.3048    0.6496    0.0000 H       1  UNL1        0.0476
     37 H           8.6951    1.0198    0.0000 H       1  UNL1        0.0595
     38 H           5.4934   -1.6738    0.0000 H       1  UNL1        0.1656
     39 H           8.5055   -0.8004    0.0000 H       1  UNL1        0.0604
     40 H           8.8012   -0.0866    0.0000 H       1  UNL1        0.0604
     41 H           2.1820   -0.1344    0.0000 H       1  UNL1        0.0624
     42 H           3.9071   -2.9441    0.0000 H       1  UNL1        0.0638
     43 H           1.3802   -1.5874    0.0000 H       1  UNL1        0.0618
     44 H           2.2485   -3.0017    0.0000 H       1  UNL1        0.0618
     45 H           5.2977   -2.3007    0.0000 H       1  UNL1        0.0661
     46 H           5.6332   -3.1108    0.0000 H       1  UNL1        0.0661
     47 H           6.4433   -2.7753    0.0000 H       1  UNL1        0.0661
@<TRIPOS>BOND
     1     1    13    1
     2     1    20    1
     3     2    16    1
     4     2    25    1
     5     3    16    2
     6     4    11    1
     7     4    12    1
     8     4    15    1
     9     5    10   ar
    10     5    19   ar
    11     5    38    1
    12     6     7    1
    13     6     8    1
    14     6     9    1
    15     6    26    1
    16     7    10    1
    17     7    13    1
    18     7    16    1
    19     8    11    1
    20     8    27    1
    21     8    28    1
    22     9    12    1
    23     9    17    2
    24    10    14   ar
    25    11    29    1
    26    11    30    1
    27    12    31    1
    28    12    32    1
    29    13    33    1
    30    13    34    1
    31    14    15    1
    32    14    18   ar
    33    15    35    1
    34    15    36    1
    35    17    20    1
    36    17    37    1
    37    18    19   ar
    38    18    21   ar
    39    19    22   ar
    40    20    39    1
    41    20    40    1
    42    21    23   ar
    43    21    41    1
    44    22    24   ar
    45    22    42    1
    46    23    24   ar
    47    23    43    1
    48    24    44    1
    49    25    45    1
    50    25    46    1
    51    25    47    1
