@<TRIPOS>MOLECULE
IMPHY004892
 79 81 0 0 0
SMALL
GASTEIGER

@<TRIPOS>ATOM
      1 O           2.0000   -5.4006    0.0000 O.3     1  UNL1       -0.3914
      2 O           5.4641   -5.4006    0.0000 O.3     1  UNL1       -0.3871
      3 O          11.2563    4.5805    0.0000 O.3     1  UNL1       -0.3846
      4 C           5.4641    0.5994    0.0000 C.3     1  UNL1       -0.0222
      5 C           5.4641   -0.4006    0.0000 C.3     1  UNL1       -0.0139
      6 C           6.4103    0.9041    0.0000 C.3     1  UNL1       -0.0291
      7 C           6.4103   -0.7054    0.0000 C.3     1  UNL1       -0.0457
      8 C           6.9939    0.0994    0.0000 C.3     1  UNL1       -0.0486
      9 C           4.5981    1.0994    0.0000 C.3     1  UNL1       -0.0465
     10 C           4.5981   -0.9006    0.0000 C.2     1  UNL1       -0.0659
     11 C           6.7210    1.8546    0.0000 C.3     1  UNL1       -0.0221
     12 C           5.4641    1.5994    0.0000 C.3     1  UNL1       -0.0587
     13 C           3.7320    0.5994    0.0000 C.3     1  UNL1       -0.0488
     14 C           3.7320   -0.4006    0.0000 C.3     1  UNL1       -0.0312
     15 C           6.0531    2.5989    0.0000 C.3     1  UNL1       -0.0587
     16 C           4.5981   -1.9006    0.0000 C.2     1  UNL1       -0.0620
     17 C           7.6995    2.0608    0.0000 C.2     1  UNL1       -0.0809
     18 C           3.7320   -2.4006    0.0000 C.2     1  UNL1       -0.0582
     19 C           8.0102    3.0113    0.0000 C.2     1  UNL1       -0.0656
     20 C           3.7320   -3.4006    0.0000 C.2     1  UNL1       -0.0399
     21 C           8.9887    3.2176    0.0000 C.2     1  UNL1       -0.0633
     22 C           2.8660   -3.9006    0.0000 C.3     1  UNL1       -0.0011
     23 C           4.5981   -3.9006    0.0000 C.2     1  UNL1       -0.0229
     24 C           2.8660   -4.9006    0.0000 C.3     1  UNL1        0.0619
     25 C           4.5981   -4.9006    0.0000 C.3     1  UNL1        0.0822
     26 C           3.7320   -5.4006    0.0000 C.3     1  UNL1        0.0037
     27 C           9.2993    4.1681    0.0000 C.2     1  UNL1       -0.0529
     28 C          10.2778    4.3743    0.0000 C.3     1  UNL1        0.0839
     29 C           5.4641   -3.4006    0.0000 C.2     1  UNL1       -0.0928
     30 C          10.0716    5.3528    0.0000 C.3     1  UNL1       -0.0232
     31 C          10.4840    3.3958    0.0000 C.3     1  UNL1       -0.0232
     32 C          10.8159    6.0206    0.0000 C.3     1  UNL1       -0.0624
     33 C          11.4346    3.0851    0.0000 C.3     1  UNL1       -0.0624
     34 H           5.5540   -1.2459    0.0000 H       1  UNL1        0.0351
     35 H           7.2500    1.0360    0.0000 H       1  UNL1        0.0312
     36 H           6.1593   -1.2723    0.0000 H       1  UNL1        0.0271
     37 H           6.9477   -1.0146    0.0000 H       1  UNL1        0.0271
     38 H           7.4548   -0.3154    0.0000 H       1  UNL1        0.0268
     39 H           7.4548    0.5141    0.0000 H       1  UNL1        0.0268
     40 H           4.9966    1.5743    0.0000 H       1  UNL1        0.0271
     41 H           4.1996    1.5743    0.0000 H       1  UNL1        0.0271
     42 H           6.1143    1.7268    0.0000 H       1  UNL1        0.0343
     43 H           6.0841    1.5994    0.0000 H       1  UNL1        0.0235
     44 H           5.4641    2.2194    0.0000 H       1  UNL1        0.0235
     45 H           4.8441    1.5994    0.0000 H       1  UNL1        0.0235
     46 H           3.5200    1.1820    0.0000 H       1  UNL1        0.0268
     47 H           3.1215    0.4917    0.0000 H       1  UNL1        0.0268
     48 H           3.1215   -0.2930    0.0000 H       1  UNL1        0.0310
     49 H           3.5200   -0.9833    0.0000 H       1  UNL1        0.0310
     50 H           6.5146    3.0130    0.0000 H       1  UNL1        0.0235
     51 H           5.6391    3.0604    0.0000 H       1  UNL1        0.0235
     52 H           5.5917    2.1848    0.0000 H       1  UNL1        0.0235
     53 H           5.1350   -2.2106    0.0000 H       1  UNL1        0.0617
     54 H           8.1136    1.5994    0.0000 H       1  UNL1        0.0575
     55 H           3.1951   -2.0906    0.0000 H       1  UNL1        0.0620
     56 H           7.5961    3.4728    0.0000 H       1  UNL1        0.0614
     57 H           9.4027    2.7561    0.0000 H       1  UNL1        0.0615
     58 H           2.6540   -3.3180    0.0000 H       1  UNL1        0.0338
     59 H           2.2554   -4.0083    0.0000 H       1  UNL1        0.0338
     60 H           2.8660   -5.5206    0.0000 H       1  UNL1        0.0597
     61 H           4.5981   -5.5206    0.0000 H       1  UNL1        0.0644
     62 H           3.3335   -5.8756    0.0000 H       1  UNL1        0.0318
     63 H           4.1306   -5.8756    0.0000 H       1  UNL1        0.0318
     64 H           8.8853    4.6296    0.0000 H       1  UNL1        0.0600
     65 H           6.0010   -3.7106    0.0000 H       1  UNL1        0.0538
     66 H           5.4641   -2.7806    0.0000 H       1  UNL1        0.0538
     67 H           2.0000   -6.0206    0.0000 H       1  UNL1        0.2098
     68 H           5.4641   -6.0206    0.0000 H       1  UNL1        0.2102
     69 H           9.7440    5.8792    0.0000 H       1  UNL1        0.0293
     70 H           9.4964    5.1216    0.0000 H       1  UNL1        0.0293
     71 H           9.8644    3.3752    0.0000 H       1  UNL1        0.0293
     72 H          10.3967    2.7820    0.0000 H       1  UNL1        0.0293
     73 H          11.4489    5.1698    0.0000 H       1  UNL1        0.2106
     74 H          11.2300    5.5592    0.0000 H       1  UNL1        0.0231
     75 H          11.2774    6.4347    0.0000 H       1  UNL1        0.0231
     76 H          10.4018    6.4821    0.0000 H       1  UNL1        0.0231
     77 H          11.2420    2.4958    0.0000 H       1  UNL1        0.0231
     78 H          12.0239    2.8925    0.0000 H       1  UNL1        0.0231
     79 H          11.6272    3.6744    0.0000 H       1  UNL1        0.0231
@<TRIPOS>BOND
     1    24     1    1
     2     1    67    1
     3    25     2    1
     4     2    68    1
     5     3    28    1
     6     3    73    1
     7     4     5    1
     8     4     6    1
     9     4     9    1
    10     4    12    1
    11     5     7    1
    12     5    10    1
    13     5    34    1
    14     6     8    1
    15     6    11    1
    16     6    35    1
    17     7     8    1
    18     7    36    1
    19     7    37    1
    20     8    38    1
    21     8    39    1
    22     9    13    1
    23     9    40    1
    24     9    41    1
    25    10    14    1
    26    10    16    2
    27    11    15    1
    28    11    17    1
    29    11    42    1
    30    12    43    1
    31    12    44    1
    32    12    45    1
    33    13    14    1
    34    13    46    1
    35    13    47    1
    36    14    48    1
    37    14    49    1
    38    15    50    1
    39    15    51    1
    40    15    52    1
    41    16    18    1
    42    16    53    1
    43    17    19    2
    44    17    54    1
    45    18    20    2
    46    18    55    1
    47    19    21    1
    48    19    56    1
    49    20    22    1
    50    20    23    1
    51    21    27    2
    52    21    57    1
    53    22    24    1
    54    22    58    1
    55    22    59    1
    56    23    25    1
    57    23    29    2
    58    24    26    1
    59    24    60    1
    60    25    26    1
    61    25    61    1
    62    26    62    1
    63    26    63    1
    64    27    28    1
    65    27    64    1
    66    28    30    1
    67    28    31    1
    68    29    65    1
    69    29    66    1
    70    30    32    1
    71    30    69    1
    72    30    70    1
    73    31    33    1
    74    31    71    1
    75    31    72    1
    76    32    74    1
    77    32    75    1
    78    32    76    1
    79    33    77    1
    80    33    78    1
    81    33    79    1
