@<TRIPOS>MOLECULE
IMPHY016619
 36 35 0 0 0
SMALL
GASTEIGER

@<TRIPOS>ATOM
      1 O           7.1962    0.1340    0.0000 O.3     1  UNL1       -0.4544
      2 O           8.0622   -1.3660    0.0000 O.2     1  UNL1       -0.2511
      3 C           4.5981   -0.3660    0.0000 C.3     1  UNL1       -0.0489
      4 C           5.4641   -0.8660    0.0000 C.3     1  UNL1       -0.0094
      5 C           3.7320   -0.8660    0.0000 C.3     1  UNL1       -0.0506
      6 C           6.3301   -0.3660    0.0000 C.3     1  UNL1        0.1286
      7 C           2.8660   -0.3660    0.0000 C.3     1  UNL1       -0.0467
      8 C           6.8301   -1.2320    0.0000 C.3     1  UNL1       -0.0211
      9 C           2.0000   -0.8660    0.0000 C.3     1  UNL1       -0.0627
     10 C           2.8660    0.6340    0.0000 C.3     1  UNL1       -0.0627
     11 C           5.8301    0.5000    0.0000 C.2     1  UNL1       -0.0483
     12 C           8.0622   -0.3660    0.0000 C.2     1  UNL1        0.3048
     13 C           6.3301    1.3660    0.0000 C.2     1  UNL1       -0.0989
     14 C           8.9282    0.1340    0.0000 C.3     1  UNL1        0.0333
     15 H           4.9966    0.1089    0.0000 H       1  UNL1        0.0267
     16 H           4.1996    0.1089    0.0000 H       1  UNL1        0.0267
     17 H           5.0656   -1.3410    0.0000 H       1  UNL1        0.0307
     18 H           5.8626   -1.3410    0.0000 H       1  UNL1        0.0307
     19 H           3.3335   -1.3410    0.0000 H       1  UNL1        0.0268
     20 H           4.1306   -1.3410    0.0000 H       1  UNL1        0.0268
     21 H           2.8660   -0.9860    0.0000 H       1  UNL1        0.0295
     22 H           6.2932   -1.5420    0.0000 H       1  UNL1        0.0271
     23 H           7.1401   -1.7690    0.0000 H       1  UNL1        0.0271
     24 H           7.3671   -0.9221    0.0000 H       1  UNL1        0.0271
     25 H           1.6900   -0.3291    0.0000 H       1  UNL1        0.0232
     26 H           1.4631   -1.1760    0.0000 H       1  UNL1        0.0232
     27 H           2.3100   -1.4030    0.0000 H       1  UNL1        0.0232
     28 H           3.4860    0.6340    0.0000 H       1  UNL1        0.0232
     29 H           2.8660    1.2540    0.0000 H       1  UNL1        0.0232
     30 H           2.2460    0.6340    0.0000 H       1  UNL1        0.0232
     31 H           5.2101    0.5000    0.0000 H       1  UNL1        0.0605
     32 H           6.9501    1.3660    0.0000 H       1  UNL1        0.0533
     33 H           6.0201    1.9030    0.0000 H       1  UNL1        0.0533
     34 H           9.2382   -0.4030    0.0000 H       1  UNL1        0.0342
     35 H           9.4651    0.4440    0.0000 H       1  UNL1        0.0342
     36 H           8.6182    0.6709    0.0000 H       1  UNL1        0.0342
@<TRIPOS>BOND
     1     1     6    1
     2     1    12    1
     3     2    12    2
     4     3     4    1
     5     3     5    1
     6     3    15    1
     7     3    16    1
     8     4     6    1
     9     4    17    1
    10     4    18    1
    11     5     7    1
    12     5    19    1
    13     5    20    1
    14     6     8    1
    15     6    11    1
    16     7     9    1
    17     7    10    1
    18     7    21    1
    19     8    22    1
    20     8    23    1
    21     8    24    1
    22     9    25    1
    23     9    26    1
    24     9    27    1
    25    10    28    1
    26    10    29    1
    27    10    30    1
    28    11    13    2
    29    11    31    1
    30    12    14    1
    31    13    32    1
    32    13    33    1
    33    14    34    1
    34    14    35    1
    35    14    36    1
