@<TRIPOS>MOLECULE
IMPHY012063
 78 78 0 0 0
SMALL
GASTEIGER

@<TRIPOS>ATOM
      1 O          14.1244   -2.0000    0.0000 O.3     1  UNL1       -0.4611
      2 O          10.6603   -4.0000    0.0000 O.3     1  UNL1       -0.4611
      3 O          12.3923   -2.0000    0.0000 O.2     1  UNL1       -0.2449
      4 O          11.5263   -2.5000    0.0000 O.2     1  UNL1       -0.2449
      5 C          15.8564    2.0000    0.0000 C.3     1  UNL1       -0.0531
      6 C           6.3301   -3.5000    0.0000 C.3     1  UNL1       -0.0531
      7 C          16.7224    2.5000    0.0000 C.3     1  UNL1       -0.0531
      8 C           5.4641   -4.0000    0.0000 C.3     1  UNL1       -0.0531
      9 C          15.8564    1.0000    0.0000 C.3     1  UNL1       -0.0530
     10 C           7.1962   -4.0000    0.0000 C.3     1  UNL1       -0.0530
     11 C          16.7224    3.5000    0.0000 C.3     1  UNL1       -0.0531
     12 C           4.5981   -3.5000    0.0000 C.3     1  UNL1       -0.0531
     13 C          14.9904    0.5000    0.0000 C.3     1  UNL1       -0.0500
     14 C           8.0622   -3.5000    0.0000 C.3     1  UNL1       -0.0500
     15 C          17.5885    4.0000    0.0000 C.3     1  UNL1       -0.0533
     16 C           3.7320   -4.0000    0.0000 C.3     1  UNL1       -0.0533
     17 C          14.9904   -0.5000    0.0000 C.3     1  UNL1       -0.0185
     18 C           8.9282   -4.0000    0.0000 C.3     1  UNL1       -0.0185
     19 C          17.5885    5.0000    0.0000 C.3     1  UNL1       -0.0559
     20 C           2.8660   -3.5000    0.0000 C.3     1  UNL1       -0.0559
     21 C          14.1244   -1.0000    0.0000 C.3     1  UNL1        0.0928
     22 C           9.7942   -3.5000    0.0000 C.3     1  UNL1        0.0928
     23 C          18.4545    5.5000    0.0000 C.3     1  UNL1       -0.0653
     24 C           2.0000   -4.0000    0.0000 C.3     1  UNL1       -0.0653
     25 C          13.2583   -2.5000    0.0000 C.2     1  UNL1        0.3400
     26 C          11.5263   -3.5000    0.0000 C.2     1  UNL1        0.3400
     27 C          13.2583   -3.5000    0.0000 C.ar    1  UNL1        0.0729
     28 C          12.3923   -4.0000    0.0000 C.ar    1  UNL1        0.0729
     29 C          14.1244   -4.0000    0.0000 C.ar    1  UNL1       -0.0470
     30 C          12.3923   -5.0000    0.0000 C.ar    1  UNL1       -0.0470
     31 C          14.1244   -5.0000    0.0000 C.ar    1  UNL1       -0.0609
     32 C          13.2583   -5.5000    0.0000 C.ar    1  UNL1       -0.0609
     33 H          15.6444    2.5826    0.0000 H       1  UNL1        0.0265
     34 H          15.2458    1.8923    0.0000 H       1  UNL1        0.0265
     35 H           6.7287   -3.0250    0.0000 H       1  UNL1        0.0265
     36 H           5.9316   -3.0250    0.0000 H       1  UNL1        0.0265
     37 H          16.9345    1.9174    0.0000 H       1  UNL1        0.0265
     38 H          17.3330    2.6077    0.0000 H       1  UNL1        0.0265
     39 H           5.0656   -4.4750    0.0000 H       1  UNL1        0.0265
     40 H           5.8626   -4.4750    0.0000 H       1  UNL1        0.0265
     41 H          16.0685    0.4174    0.0000 H       1  UNL1        0.0265
     42 H          16.4670    1.1077    0.0000 H       1  UNL1        0.0265
     43 H           6.7976   -4.4750    0.0000 H       1  UNL1        0.0265
     44 H           7.5947   -4.4750    0.0000 H       1  UNL1        0.0265
     45 H          16.5104    4.0826    0.0000 H       1  UNL1        0.0265
     46 H          16.1119    3.3923    0.0000 H       1  UNL1        0.0265
     47 H           4.9966   -3.0250    0.0000 H       1  UNL1        0.0265
     48 H           4.1996   -3.0250    0.0000 H       1  UNL1        0.0265
     49 H          14.7783    1.0826    0.0000 H       1  UNL1        0.0266
     50 H          14.3798    0.3923    0.0000 H       1  UNL1        0.0266
     51 H           8.4607   -3.0250    0.0000 H       1  UNL1        0.0266
     52 H           7.6636   -3.0250    0.0000 H       1  UNL1        0.0266
     53 H          17.8005    3.4174    0.0000 H       1  UNL1        0.0265
     54 H          18.1990    4.1077    0.0000 H       1  UNL1        0.0265
     55 H           3.3335   -4.4750    0.0000 H       1  UNL1        0.0265
     56 H           4.1306   -4.4750    0.0000 H       1  UNL1        0.0265
     57 H          15.2024   -1.0826    0.0000 H       1  UNL1        0.0298
     58 H          15.6010   -0.3923    0.0000 H       1  UNL1        0.0298
     59 H           8.5297   -4.4750    0.0000 H       1  UNL1        0.0298
     60 H           9.3267   -4.4750    0.0000 H       1  UNL1        0.0298
     61 H          17.3764    5.5826    0.0000 H       1  UNL1        0.0263
     62 H          16.9779    4.8923    0.0000 H       1  UNL1        0.0263
     63 H           3.2646   -3.0250    0.0000 H       1  UNL1        0.0263
     64 H           2.4675   -3.0250    0.0000 H       1  UNL1        0.0263
     65 H          13.9123   -0.4174    0.0000 H       1  UNL1        0.0697
     66 H          13.5138   -1.1077    0.0000 H       1  UNL1        0.0697
     67 H          10.1928   -3.0250    0.0000 H       1  UNL1        0.0697
     68 H           9.3957   -3.0250    0.0000 H       1  UNL1        0.0697
     69 H          18.7645    4.9631    0.0000 H       1  UNL1        0.0230
     70 H          18.9914    5.8100    0.0000 H       1  UNL1        0.0230
     71 H          18.1445    6.0369    0.0000 H       1  UNL1        0.0230
     72 H           1.6900   -3.4631    0.0000 H       1  UNL1        0.0230
     73 H           1.4631   -4.3100    0.0000 H       1  UNL1        0.0230
     74 H           2.3100   -4.5369    0.0000 H       1  UNL1        0.0230
     75 H          14.6613   -3.6900    0.0000 H       1  UNL1        0.0626
     76 H          11.8554   -5.3100    0.0000 H       1  UNL1        0.0626
     77 H          14.6613   -5.3100    0.0000 H       1  UNL1        0.0618
     78 H          13.2583   -6.1200    0.0000 H       1  UNL1        0.0618
@<TRIPOS>BOND
     1     1    21    1
     2     1    25    1
     3     2    22    1
     4     2    26    1
     5     3    25    2
     6     4    26    2
     7     5     7    1
     8     5     9    1
     9     5    33    1
    10     5    34    1
    11     6     8    1
    12     6    10    1
    13     6    35    1
    14     6    36    1
    15     7    11    1
    16     7    37    1
    17     7    38    1
    18     8    12    1
    19     8    39    1
    20     8    40    1
    21     9    13    1
    22     9    41    1
    23     9    42    1
    24    10    14    1
    25    10    43    1
    26    10    44    1
    27    11    15    1
    28    11    45    1
    29    11    46    1
    30    12    16    1
    31    12    47    1
    32    12    48    1
    33    13    17    1
    34    13    49    1
    35    13    50    1
    36    14    18    1
    37    14    51    1
    38    14    52    1
    39    15    19    1
    40    15    53    1
    41    15    54    1
    42    16    20    1
    43    16    55    1
    44    16    56    1
    45    17    21    1
    46    17    57    1
    47    17    58    1
    48    18    22    1
    49    18    59    1
    50    18    60    1
    51    19    23    1
    52    19    61    1
    53    19    62    1
    54    20    24    1
    55    20    63    1
    56    20    64    1
    57    21    65    1
    58    21    66    1
    59    22    67    1
    60    22    68    1
    61    23    69    1
    62    23    70    1
    63    23    71    1
    64    24    72    1
    65    24    73    1
    66    24    74    1
    67    25    27    1
    68    26    28    1
    69    27    28   ar
    70    27    29   ar
    71    28    30   ar
    72    29    31   ar
    73    29    75    1
    74    30    32   ar
    75    30    76    1
    76    31    32   ar
    77    31    77    1
    78    32    78    1
