@<TRIPOS>MOLECULE
IMPHY009872
 26 26 0 0 0
SMALL
GASTEIGER

@<TRIPOS>ATOM
      1 C           2.8660   -1.2500    0.0000 C.3     1  UNL1       -0.0401
      2 C           3.7320   -0.7500    0.0000 C.3     1  UNL1       -0.0462
      3 C           2.0000   -0.7500    0.0000 C.3     1  UNL1       -0.0316
      4 C           3.7320    0.2500    0.0000 C.3     1  UNL1       -0.0275
      5 C           2.8660    0.7500    0.0000 C.2     1  UNL1       -0.0489
      6 C           2.0000    0.2500    0.0000 C.2     1  UNL1       -0.0803
      7 C           2.8660   -2.2500    0.0000 C.3     1  UNL1       -0.0621
      8 C           2.8660    1.7500    0.0000 C.2     1  UNL1       -0.0546
      9 C           3.7320    2.2500    0.0000 C.3     1  UNL1       -0.0400
     10 C           2.0000    2.2500    0.0000 C.2     1  UNL1       -0.0955
     11 H           3.6022   -1.6750    0.0000 H       1  UNL1        0.0301
     12 H           3.9441   -1.3326    0.0000 H       1  UNL1        0.0271
     13 H           4.3426   -0.6423    0.0000 H       1  UNL1        0.0271
     14 H           1.3894   -0.6423    0.0000 H       1  UNL1        0.0310
     15 H           1.7880   -1.3326    0.0000 H       1  UNL1        0.0310
     16 H           4.3426    0.1423    0.0000 H       1  UNL1        0.0313
     17 H           3.9441    0.8326    0.0000 H       1  UNL1        0.0313
     18 H           1.4631    0.5600    0.0000 H       1  UNL1        0.0575
     19 H           2.2460   -2.2500    0.0000 H       1  UNL1        0.0233
     20 H           2.8660   -2.8700    0.0000 H       1  UNL1        0.0233
     21 H           3.4860   -2.2500    0.0000 H       1  UNL1        0.0233
     22 H           4.0420    1.7131    0.0000 H       1  UNL1        0.0277
     23 H           4.2690    2.5600    0.0000 H       1  UNL1        0.0277
     24 H           3.4220    2.7869    0.0000 H       1  UNL1        0.0277
     25 H           2.0000    2.8700    0.0000 H       1  UNL1        0.0537
     26 H           1.4631    1.9400    0.0000 H       1  UNL1        0.0537
@<TRIPOS>BOND
     1     1     2    1
     2     1     3    1
     3     1     7    1
     4     1    11    1
     5     2     4    1
     6     2    12    1
     7     2    13    1
     8     3     6    1
     9     3    14    1
    10     3    15    1
    11     4     5    1
    12     4    16    1
    13     4    17    1
    14     5     6    2
    15     5     8    1
    16     6    18    1
    17     7    19    1
    18     7    20    1
    19     7    21    1
    20     8     9    1
    21     8    10    2
    22     9    22    1
    23     9    23    1
    24     9    24    1
    25    10    25    1
    26    10    26    1
