@<TRIPOS>MOLECULE
IMPHY005010
 46 47 0 0 0
SMALL
GASTEIGER

@<TRIPOS>ATOM
      1 O           4.2690    5.6550    0.0000 O.3     1  UNL1       -0.4915
      2 O           7.7331    1.6550    0.0000 O.2     1  UNL1       -0.2927
      3 O           2.5369    4.6550    0.0000 O.3     1  UNL1       -0.5033
      4 O           8.5991   -5.8450    0.0000 O.3     1  UNL1       -0.5068
      5 C           6.0010    2.6550    0.0000 C.3     1  UNL1       -0.0206
      6 C           6.0010    1.6550    0.0000 C.3     1  UNL1        0.0138
      7 C           5.1350    3.1550    0.0000 C.ar    1  UNL1       -0.0433
      8 C           8.5991   -1.8450    0.0000 C.3     1  UNL1       -0.0242
      9 C           7.7331   -1.3450    0.0000 C.3     1  UNL1       -0.0304
     10 C           8.5991   -2.8450    0.0000 C.ar    1  UNL1       -0.0468
     11 C           6.8671    1.1550    0.0000 C.2     1  UNL1        0.1561
     12 C           7.7331   -0.3450    0.0000 C.2     1  UNL1       -0.0804
     13 C           5.1350    4.1550    0.0000 C.ar    1  UNL1       -0.0131
     14 C           4.2690    2.6550    0.0000 C.ar    1  UNL1       -0.0549
     15 C           6.8671    0.1550    0.0000 C.2     1  UNL1       -0.0231
     16 C           4.2690    4.6550    0.0000 C.ar    1  UNL1        0.1615
     17 C           7.7331   -3.3450    0.0000 C.ar    1  UNL1       -0.0551
     18 C           9.4651   -3.3450    0.0000 C.ar    1  UNL1       -0.0551
     19 C           3.4030    3.1550    0.0000 C.ar    1  UNL1       -0.0163
     20 C           3.4030    4.1550    0.0000 C.ar    1  UNL1        0.1585
     21 C           7.7331   -4.3450    0.0000 C.ar    1  UNL1       -0.0199
     22 C           9.4651   -4.3450    0.0000 C.ar    1  UNL1       -0.0199
     23 C           8.5991   -4.8450    0.0000 C.ar    1  UNL1        0.1169
     24 C           5.1350    6.1550    0.0000 C.3     1  UNL1        0.0790
     25 H           6.6116    2.5473    0.0000 H       1  UNL1        0.0317
     26 H           6.2131    3.2376    0.0000 H       1  UNL1        0.0317
     27 H           5.3905    1.7627    0.0000 H       1  UNL1        0.0348
     28 H           5.7890    1.0724    0.0000 H       1  UNL1        0.0348
     29 H           9.2097   -1.9527    0.0000 H       1  UNL1        0.0316
     30 H           8.8112   -1.2624    0.0000 H       1  UNL1        0.0316
     31 H           7.1225   -1.2373    0.0000 H       1  UNL1        0.0311
     32 H           7.5210   -1.9276    0.0000 H       1  UNL1        0.0311
     33 H           8.2700   -0.0350    0.0000 H       1  UNL1        0.0573
     34 H           5.6720    4.4650    0.0000 H       1  UNL1        0.0658
     35 H           4.2690    2.0350    0.0000 H       1  UNL1        0.0621
     36 H           6.3301   -0.1550    0.0000 H       1  UNL1        0.0649
     37 H           7.1962   -3.0350    0.0000 H       1  UNL1        0.0621
     38 H          10.0021   -3.0350    0.0000 H       1  UNL1        0.0621
     39 H           2.8660    2.8450    0.0000 H       1  UNL1        0.0655
     40 H           7.1962   -4.6550    0.0000 H       1  UNL1        0.0654
     41 H          10.0021   -4.6550    0.0000 H       1  UNL1        0.0654
     42 H           2.0000    4.3450    0.0000 H       1  UNL1        0.2923
     43 H           5.4450    5.6181    0.0000 H       1  UNL1        0.0660
     44 H           5.6720    6.4650    0.0000 H       1  UNL1        0.0660
     45 H           4.8250    6.6919    0.0000 H       1  UNL1        0.0660
     46 H           9.1360   -6.1550    0.0000 H       1  UNL1        0.2921
@<TRIPOS>BOND
     1     1    16    1
     2     1    24    1
     3     2    11    2
     4     3    20    1
     5     3    42    1
     6     4    23    1
     7     4    46    1
     8     5     6    1
     9     5     7    1
    10     5    25    1
    11     5    26    1
    12     6    11    1
    13     6    27    1
    14     6    28    1
    15     7    13   ar
    16     7    14   ar
    17     8     9    1
    18     8    10    1
    19     8    29    1
    20     8    30    1
    21     9    12    1
    22     9    31    1
    23     9    32    1
    24    10    17   ar
    25    10    18   ar
    26    11    15    1
    27    12    15    2
    28    12    33    1
    29    13    16   ar
    30    13    34    1
    31    14    19   ar
    32    14    35    1
    33    15    36    1
    34    16    20   ar
    35    17    21   ar
    36    17    37    1
    37    18    22   ar
    38    18    38    1
    39    19    20   ar
    40    19    39    1
    41    21    23   ar
    42    21    40    1
    43    22    23   ar
    44    22    41    1
    45    24    43    1
    46    24    44    1
    47    24    45    1
