@<TRIPOS>MOLECULE
IMPHY001146
 46 47 0 0 0
SMALL
GASTEIGER

@<TRIPOS>ATOM
      1 O           2.8660   -4.0000    0.0000 O.2     1  UNL1       -0.4911
      2 O           6.3301   -4.0000    0.0000 O.2     1  UNL1       -0.4911
      3 O           8.0622    4.0000    0.0000 O.2     1  UNL1       -0.4911
      4 O           4.5981    4.0000    0.0000 O.2     1  UNL1       -0.4911
      5 O           4.5981   -5.0000    0.0000 O.2     1  UNL1       -0.2801
      6 O           6.3301    5.0000    0.0000 O.2     1  UNL1       -0.2801
      7 C           4.5981   -2.0000    0.0000 C.2     1  UNL1       -0.0179
      8 C           6.3301    2.0000    0.0000 C.2     1  UNL1       -0.0179
      9 C           3.7320   -2.5000    0.0000 C.2     1  UNL1       -0.0087
     10 C           5.4641   -2.5000    0.0000 C.2     1  UNL1       -0.0087
     11 C           7.1962    2.5000    0.0000 C.2     1  UNL1       -0.0087
     12 C           5.4641    2.5000    0.0000 C.2     1  UNL1       -0.0087
     13 C           3.7320   -3.5000    0.0000 C.2     1  UNL1        0.1708
     14 C           5.4641   -3.5000    0.0000 C.2     1  UNL1        0.1708
     15 C           7.1962    3.5000    0.0000 C.2     1  UNL1        0.1708
     16 C           5.4641    3.5000    0.0000 C.2     1  UNL1        0.1708
     17 C           4.5981   -1.0000    0.0000 C.2     1  UNL1       -0.0544
     18 C           6.3301    1.0000    0.0000 C.2     1  UNL1       -0.0544
     19 C           4.5981   -4.0000    0.0000 C.2     1  UNL1        0.2614
     20 C           6.3301    4.0000    0.0000 C.2     1  UNL1        0.2614
     21 C           5.4641   -0.5000    0.0000 C.2     1  UNL1       -0.0612
     22 C           5.4641    0.5000    0.0000 C.2     1  UNL1       -0.0612
     23 C           2.0000   -3.5000    0.0000 C.3     1  UNL1        0.0790
     24 C           7.1962   -3.5000    0.0000 C.3     1  UNL1        0.0790
     25 C           8.9282    3.5000    0.0000 C.3     1  UNL1        0.0790
     26 C           4.5981    5.0000    0.0000 C.3     1  UNL1        0.0790
     27 H           7.7331    2.1900    0.0000 H       1  UNL1        0.0661
     28 H           4.9272    2.1900    0.0000 H       1  UNL1        0.0661
     29 H           6.0010   -2.1900    0.0000 H       1  UNL1        0.0661
     30 H           3.1951   -2.1900    0.0000 H       1  UNL1        0.0661
     31 H           6.8671    0.6900    0.0000 H       1  UNL1        0.0623
     32 H           4.0611   -0.6900    0.0000 H       1  UNL1        0.0623
     33 H           4.9272    0.8100    0.0000 H       1  UNL1        0.0618
     34 H           6.0010   -0.8100    0.0000 H       1  UNL1        0.0618
     35 H           2.3100   -2.9631    0.0000 H       1  UNL1        0.0660
     36 H           1.4631   -3.1900    0.0000 H       1  UNL1        0.0660
     37 H           1.6900   -4.0369    0.0000 H       1  UNL1        0.0660
     38 H           7.5062   -4.0369    0.0000 H       1  UNL1        0.0660
     39 H           7.7331   -3.1900    0.0000 H       1  UNL1        0.0660
     40 H           6.8862   -2.9631    0.0000 H       1  UNL1        0.0660
     41 H           8.6182    2.9631    0.0000 H       1  UNL1        0.0660
     42 H           9.4651    3.1900    0.0000 H       1  UNL1        0.0660
     43 H           9.2382    4.0369    0.0000 H       1  UNL1        0.0660
     44 H           5.2181    5.0000    0.0000 H       1  UNL1        0.0660
     45 H           4.5981    5.6200    0.0000 H       1  UNL1        0.0660
     46 H           3.9781    5.0000    0.0000 H       1  UNL1        0.0660
@<TRIPOS>BOND
     1     1    13    1
     2     1    23    1
     3     2    14    1
     4     2    24    1
     5     3    15    1
     6     3    25    1
     7     4    16    1
     8     4    26    1
     9     5    19    2
    10     6    20    2
    11     7     9    1
    12     7    10    1
    13     7    17    2
    14     8    11    1
    15     8    12    1
    16     8    18    2
    17     9    13    2
    18     9    30    1
    19    10    14    2
    20    10    29    1
    21    11    15    2
    22    11    27    1
    23    12    16    2
    24    12    28    1
    25    13    19    1
    26    14    19    1
    27    15    20    1
    28    16    20    1
    29    17    21    1
    30    17    32    1
    31    18    22    1
    32    18    31    1
    33    21    22    2
    34    21    34    1
    35    22    33    1
    36    23    35    1
    37    23    36    1
    38    23    37    1
    39    24    38    1
    40    24    39    1
    41    24    40    1
    42    25    41    1
    43    25    42    1
    44    25    43    1
    45    26    44    1
    46    26    45    1
    47    26    46    1
