@<TRIPOS>MOLECULE
IMPHY007855
 32 32 0 0 0
SMALL
GASTEIGER

@<TRIPOS>ATOM
      1 C           4.5391    1.7241    0.0000 C.3     1  UNL1       -0.0531
      2 C           5.5050    1.4653    0.0000 C.3     1  UNL1       -0.0531
      3 C           3.6730    1.2241    0.0000 C.3     1  UNL1       -0.0530
      4 C           5.7638    0.4994    0.0000 C.3     1  UNL1       -0.0530
      5 C           2.7071    1.4830    0.0000 C.3     1  UNL1       -0.0522
      6 C           5.2638   -0.3666    0.0000 C.3     1  UNL1       -0.0522
      7 C           2.0000    0.7759    0.0000 C.3     1  UNL1       -0.0422
      8 C           5.5226   -1.3325    0.0000 C.3     1  UNL1       -0.0422
      9 C           2.0000   -0.2241    0.0000 C.3     1  UNL1        0.0091
     10 C           4.5981   -1.7241    0.0000 C.3     1  UNL1        0.0091
     11 C           2.8660   -0.7241    0.0000 C.1     1  UNL1       -0.1022
     12 C           3.7320   -1.2241    0.0000 C.1     1  UNL1       -0.1022
     13 H           4.8491    2.2611    0.0000 H       1  UNL1        0.0265
     14 H           4.1006    2.1626    0.0000 H       1  UNL1        0.0265
     15 H           6.1226    1.5194    0.0000 H       1  UNL1        0.0265
     16 H           5.5590    2.0830    0.0000 H       1  UNL1        0.0265
     17 H           6.2022    0.0610    0.0000 H       1  UNL1        0.0265
     18 H           6.3007    0.8094    0.0000 H       1  UNL1        0.0265
     19 H           3.3630    0.6872    0.0000 H       1  UNL1        0.0265
     20 H           4.1114    0.7857    0.0000 H       1  UNL1        0.0265
     21 H           2.9691    2.0449    0.0000 H       1  UNL1        0.0266
     22 H           2.1992    1.8386    0.0000 H       1  UNL1        0.0266
     23 H           4.8254    0.0718    0.0000 H       1  UNL1        0.0266
     24 H           4.7269   -0.6766    0.0000 H       1  UNL1        0.0266
     25 H           1.6900    1.3128    0.0000 H       1  UNL1        0.0274
     26 H           1.4011    0.6154    0.0000 H       1  UNL1        0.0274
     27 H           5.7378   -1.9140    0.0000 H       1  UNL1        0.0274
     28 H           6.1134   -1.1446    0.0000 H       1  UNL1        0.0274
     29 H           4.1804   -2.1824    0.0000 H       1  UNL1        0.0397
     30 H           4.9564   -2.2301    0.0000 H       1  UNL1        0.0397
     31 H           1.3894   -0.1165    0.0000 H       1  UNL1        0.0397
     32 H           1.7880   -0.8068    0.0000 H       1  UNL1        0.0397
@<TRIPOS>BOND
     1     1     2    1
     2     1     3    1
     3     1    13    1
     4     1    14    1
     5     2     4    1
     6     2    15    1
     7     2    16    1
     8     3     5    1
     9     3    19    1
    10     3    20    1
    11     4     6    1
    12     4    17    1
    13     4    18    1
    14     5     7    1
    15     5    21    1
    16     5    22    1
    17     6     8    1
    18     6    23    1
    19     6    24    1
    20     7     9    1
    21     7    25    1
    22     7    26    1
    23     8    10    1
    24     8    27    1
    25     8    28    1
    26     9    11    1
    27     9    31    1
    28     9    32    1
    29    10    12    1
    30    10    29    1
    31    10    30    1
    32    11    12    3
