@<TRIPOS>MOLECULE
IMPHY003182
 122 129 0 0 0
SMALL
GASTEIGER

@<TRIPOS>ATOM
      1 S          12.1879    6.8938    0.0000 S.O2    1  UNL1        0.2051
      2 O           5.3840    2.1550    0.0000 O.3     2  UNL2       -0.4570
      3 O           6.6514    4.1096    0.0000 O.3     2  UNL2       -0.3733
      4 O           7.3946    3.4405    0.0000 O.3     2  UNL2       -0.4658
      5 O           7.1867    2.4624    0.0000 O.2     2  UNL2       -0.2474
      6 O           7.7312    5.0241    0.0000 O.2     2  UNL2       -0.2790
      7 O           6.7539    8.5999    0.0000 O.3     2  UNL2       -0.4947
      8 O           6.6711    0.9960    0.0000 O.2     2  UNL2       -0.2512
      9 O           5.1025    7.2870    0.0000 O.3     2  UNL2       -0.4670
     10 O           3.8176    7.3319    0.0000 O.2     2  UNL2       -0.2494
     11 O          13.0539    7.3938    0.0000 O.3     1  UNL1       -0.2312
     12 O          11.3219    6.3938    0.0000 O.3     1  UNL1       -0.2312
     13 O          11.6879    7.7598    0.0000 O.2     1  UNL1       -0.1183
     14 O          12.6879    6.0278    0.0000 O.2     1  UNL1       -0.1183
     15 N           2.9575    4.3836    0.0000 N.3     2  UNL2       -0.2939
     16 N           6.0370    5.3842    0.0000 N.am    2  UNL2       -0.2662
     17 N           3.2419    8.6635    0.0000 N.ar    2  UNL2       -0.3565
     18 N           5.4601   11.8187    0.0000 N.3     2  UNL2       -0.3015
     19 C           4.4972    4.8839    0.0000 C.3     2  UNL2        0.0374
     20 C           3.8718    4.1893    0.0000 C.3     2  UNL2        0.0348
     21 C           4.1607    3.3004    0.0000 C.3     2  UNL2        0.0453
     22 C           5.4116    4.6896    0.0000 C.3     2  UNL2        0.0848
     23 C           5.7004    3.8006    0.0000 C.3     2  UNL2        0.2200
     24 C           4.1122    5.9196    0.0000 C.3     2  UNL2       -0.0271
     25 C           5.0749    3.1060    0.0000 C.3     2  UNL2        0.1543
     26 C           4.8339    6.4675    0.0000 C.ar    2  UNL2       -0.0158
     27 C           2.6687    5.2726    0.0000 C.3     2  UNL2        0.0005
     28 C           4.4697    2.3493    0.0000 C.3     2  UNL2       -0.0418
     29 C           3.5352    2.6057    0.0000 C.2     2  UNL2       -0.0755
     30 C           5.7482    6.2732    0.0000 C.ar    2  UNL2        0.0438
     31 C           2.3321    3.6890    0.0000 C.3     2  UNL2        0.0175
     32 C           2.6209    2.8000    0.0000 C.2     2  UNL2       -0.0733
     33 C           6.4435    3.1315    0.0000 C.2     2  UNL2        0.3446
     34 C           4.5450    7.3565    0.0000 C.ar    2  UNL2       -0.0481
     35 C           3.8005    1.6062    0.0000 C.3     2  UNL2       -0.0643
     36 C           6.3736    6.9678    0.0000 C.ar    2  UNL2        0.0021
     37 C           6.9880    5.6932    0.0000 C.2     2  UNL2        0.2071
     38 C           5.1705    8.0511    0.0000 C.ar    2  UNL2        0.0172
     39 C           6.0848    7.8568    0.0000 C.ar    2  UNL2        0.1265
     40 C           4.8614    9.0022    0.0000 C.3     2  UNL2        0.1360
     41 C           5.6930    1.2039    0.0000 C.2     2  UNL2        0.3043
     42 C           5.8125    9.3112    0.0000 C.3     2  UNL2       -0.0235
     43 C           3.9343    9.3768    0.0000 C.ar    2  UNL2        0.0418
     44 C           6.3424   10.1593    0.0000 C.3     2  UNL2       -0.0263
     45 C           4.4868    8.0750    0.0000 C.2     2  UNL2        0.3235
     46 C           5.0239    0.4608    0.0000 C.3     2  UNL2        0.0332
     47 C           8.1377    2.7714    0.0000 C.3     2  UNL2        0.0818
     48 C           7.2177   10.6805    0.0000 C.3     2  UNL2       -0.0450
     49 C           6.2032   11.1495    0.0000 C.3     2  UNL2        0.0018
     50 C           3.4648   10.2597    0.0000 C.ar    2  UNL2       -0.0165
     51 C           7.2368   11.6991    0.0000 C.3     2  UNL2       -0.0282
     52 C           3.6727   11.2379    0.0000 C.3     2  UNL2       -0.0126
     53 C           6.3817   12.2528    0.0000 C.3     2  UNL2        0.0017
     54 C           4.4607   11.8536    0.0000 C.3     2  UNL2        0.0030
     55 C           7.7320    8.3920    0.0000 C.3     2  UNL2        0.0788
     56 C           2.4863   10.0846    0.0000 C.ar    2  UNL2        0.0032
     57 C           2.3488    9.1001    0.0000 C.ar    2  UNL2        0.0470
     58 C           8.1198   12.1685    0.0000 C.3     2  UNL2       -0.0519
     59 C           1.6797   10.7339    0.0000 C.ar    2  UNL2       -0.0523
     60 C           1.3951    8.6966    0.0000 C.ar    2  UNL2       -0.0378
     61 C           6.2413    7.4470    0.0000 C.3     2  UNL2        0.0817
     62 C           8.1547   13.1679    0.0000 C.3     2  UNL2       -0.0650
     63 C           0.7170   10.3526    0.0000 C.ar    2  UNL2       -0.0611
     64 C           0.5738    9.3271    0.0000 C.ar    2  UNL2       -0.0598
     65 H           3.6091    4.9977    0.0000 H       2  UNL2        0.0482
     66 H           6.2430    4.5129    0.0000 H       2  UNL2        0.0549
     67 H           4.6884    6.1482    0.0000 H       2  UNL2        0.0287
     68 H           3.8710    6.4907    0.0000 H       2  UNL2        0.0287
     69 H           5.6814    2.9771    0.0000 H       2  UNL2        0.0779
     70 H           2.4355    5.8471    0.0000 H       2  UNL2        0.0427
     71 H           2.0862    5.0601    0.0000 H       2  UNL2        0.0427
     72 H           4.8514    1.8607    0.0000 H       2  UNL2        0.0273
     73 H           5.0171    2.6404    0.0000 H       2  UNL2        0.0273
     74 H           3.7268    2.0161    0.0000 H       2  UNL2        0.0577
     75 H           1.9504    4.1776    0.0000 H       2  UNL2        0.0470
     76 H           1.7846    3.3980    0.0000 H       2  UNL2        0.0470
     77 H           2.2061    2.3393    0.0000 H       2  UNL2        0.0582
     78 H           3.9386    7.4854    0.0000 H       2  UNL2        0.0625
     79 H           7.0663    4.5704    0.0000 H       2  UNL2        0.2111
     80 H           3.3398    2.0210    0.0000 H       2  UNL2        0.0230
     81 H           3.3857    1.1454    0.0000 H       2  UNL2        0.0230
     82 H           4.2613    1.1913    0.0000 H       2  UNL2        0.0230
     83 H           6.9800    6.8389    0.0000 H       2  UNL2        0.0673
     84 H           7.1169    6.2997    0.0000 H       2  UNL2        0.1257
     85 H           5.8269    8.6914    0.0000 H       2  UNL2        0.0286
     86 H           6.4104    9.1472    0.0000 H       2  UNL2        0.0286
     87 H           6.9370    9.5518    0.0000 H       2  UNL2        0.0314
     88 H           4.5631    0.8756    0.0000 H       2  UNL2        0.0342
     89 H           4.6090    0.0000    0.0000 H       2  UNL2        0.0342
     90 H           5.4846    0.0459    0.0000 H       2  UNL2        0.0342
     91 H           7.7229    2.3106    0.0000 H       2  UNL2        0.0661
     92 H           8.5985    2.3565    0.0000 H       2  UNL2        0.0661
     93 H           8.5526    3.2322    0.0000 H       2  UNL2        0.0661
     94 H           7.4314   10.0985    0.0000 H       2  UNL2        0.0271
     95 H           7.8291   10.7833    0.0000 H       2  UNL2        0.0271
     96 H           6.8162   11.0561    0.0000 H       2  UNL2        0.0429
     97 H           6.4685   11.7099    0.0000 H       2  UNL2        0.0429
     98 H           7.2635   12.3185    0.0000 H       2  UNL2        0.0313
     99 H           2.9309    8.1271    0.0000 H       2  UNL2        0.1656
    100 H           3.4472   11.8154    0.0000 H       2  UNL2        0.0326
    101 H           3.0548   11.1875    0.0000 H       2  UNL2        0.0326
    102 H           6.8088   12.7022    0.0000 H       2  UNL2        0.0429
    103 H           6.0187   12.7554    0.0000 H       2  UNL2        0.0429
    104 H           4.6592   12.4409    0.0000 H       2  UNL2        0.0430
    105 H           3.9549   12.2121    0.0000 H       2  UNL2        0.0430
    106 H           7.6031    7.7856    0.0000 H       2  UNL2        0.0660
    107 H           8.3385    8.2631    0.0000 H       2  UNL2        0.0660
    108 H           7.8609    8.9985    0.0000 H       2  UNL2        0.0660
    109 H           8.3114   11.5789    0.0000 H       2  UNL2        0.0266
    110 H           8.7337   12.2548    0.0000 H       2  UNL2        0.0266
    111 H           1.7725   11.3469    0.0000 H       2  UNL2        0.0624
    112 H           1.3165    8.0816    0.0000 H       2  UNL2        0.0638
    113 H           6.3276    6.8331    0.0000 H       2  UNL2        0.0661
    114 H           6.8553    7.5333    0.0000 H       2  UNL2        0.0661
    115 H           6.1550    8.0610    0.0000 H       2  UNL2        0.0661
    116 H           8.7743   13.1463    0.0000 H       2  UNL2        0.0230
    117 H           8.1763   13.7876    0.0000 H       2  UNL2        0.0230
    118 H           7.5350   13.1896    0.0000 H       2  UNL2        0.0230
    119 H           0.2296   10.7357    0.0000 H       2  UNL2        0.0618
    120 H           0.0000    9.0921    0.0000 H       2  UNL2        0.0618
    121 H          13.5909    7.0838    0.0000 H       1  UNL1        0.2469
    122 H          10.7850    6.7038    0.0000 H       1  UNL1        0.2469
@<TRIPOS>BOND
     1     1    11    1
     2     1    12    1
     3     1    13    2
     4     1    14    2
     5    25     2    1
     6     2    41    1
     7    23     3    1
     8     3    79    1
     9     4    33    1
    10     4    47    1
    11     5    33    2
    12     6    37    2
    13     7    39    1
    14     7    55    1
    15     8    41    2
    16     9    45    1
    17     9    61    1
    18    10    45    2
    19    11   121    1
    20    12   122    1
    21    15    20    1
    22    15    27    1
    23    15    31    1
    24    16    22    1
    25    16    30    1
    26    16    37   am
    27    17    43   ar
    28    17    57   ar
    29    17    99    1
    30    18    49    1
    31    18    53    1
    32    18    54    1
    33    19    20    1
    34    19    22    1
    35    19    24    1
    36    19    26    1
    37    20    21    1
    38    20    65    1
    39    21    25    1
    40    21    28    1
    41    21    29    1
    42    22    23    1
    43    22    66    1
    44    23    25    1
    45    23    33    1
    46    24    27    1
    47    24    67    1
    48    24    68    1
    49    25    69    1
    50    26    30   ar
    51    26    34   ar
    52    27    70    1
    53    27    71    1
    54    28    35    1
    55    28    72    1
    56    28    73    1
    57    29    32    2
    58    29    74    1
    59    30    36   ar
    60    31    32    1
    61    31    75    1
    62    31    76    1
    63    32    77    1
    64    34    38   ar
    65    34    78    1
    66    35    80    1
    67    35    81    1
    68    35    82    1
    69    36    39   ar
    70    36    83    1
    71    37    84    1
    72    38    39   ar
    73    38    40    1
    74    40    42    1
    75    40    43    1
    76    40    45    1
    77    41    46    1
    78    42    44    1
    79    42    85    1
    80    42    86    1
    81    43    50   ar
    82    44    48    1
    83    44    49    1
    84    44    87    1
    85    46    88    1
    86    46    89    1
    87    46    90    1
    88    47    91    1
    89    47    92    1
    90    47    93    1
    91    48    51    1
    92    48    94    1
    93    48    95    1
    94    49    96    1
    95    49    97    1
    96    50    52    1
    97    50    56   ar
    98    51    53    1
    99    51    58    1
   100    51    98    1
   101    52    54    1
   102    52   100    1
   103    52   101    1
   104    53   102    1
   105    53   103    1
   106    54   104    1
   107    54   105    1
   108    55   106    1
   109    55   107    1
   110    55   108    1
   111    56    57   ar
   112    56    59   ar
   113    57    60   ar
   114    58    62    1
   115    58   109    1
   116    58   110    1
   117    59    63   ar
   118    59   111    1
   119    60    64   ar
   120    60   112    1
   121    61   113    1
   122    61   114    1
   123    61   115    1
   124    62   116    1
   125    62   117    1
   126    62   118    1
   127    63    64   ar
   128    63   119    1
   129    64   120    1
