@<TRIPOS>MOLECULE
IMPHY000890
 67 72 0 0 0
SMALL
GASTEIGER

@<TRIPOS>ATOM
      1 O           6.0271   -1.7394    0.0000 O.3     1  UNL1       -0.3512
      2 O           8.7217   -2.2810    0.0000 O.3     1  UNL1       -0.4539
      3 O           6.0610    2.2919    0.0000 O.3     1  UNL1       -0.4639
      4 O           5.1893   -2.2672    0.0000 O.2     1  UNL1       -0.2967
      5 O           3.4573    1.8220    0.0000 O.3     1  UNL1       -0.3906
      6 O           7.8158   -3.8019    0.0000 O.2     1  UNL1       -0.2478
      7 O           2.5357   -0.7051    0.0000 O.3     1  UNL1       -0.3888
      8 O          10.6426    0.4854    0.0000 O.2     1  UNL1       -0.4706
      9 O           5.2124    3.8019    0.0000 O.2     1  UNL1       -0.2508
     10 C           6.9377   -1.2326    0.0000 C.3     1  UNL1        0.1283
     11 C           6.0716   -0.7326    0.0000 C.3     1  UNL1        0.0622
     12 C           7.8037   -0.7326    0.0000 C.3     1  UNL1        0.0422
     13 C           6.0716    0.2674    0.0000 C.3     1  UNL1       -0.0146
     14 C           6.9216   -2.2741    0.0000 C.3     1  UNL1        0.1861
     15 C           5.1777    0.8021    0.0000 C.3     1  UNL1        0.0409
     16 C           6.9377    0.7674    0.0000 C.3     1  UNL1       -0.0478
     17 C           7.8037    0.2674    0.0000 C.3     1  UNL1       -0.0408
     18 C           4.2716    0.2882    0.0000 C.3     1  UNL1        0.0054
     19 C           5.1777   -1.2673    0.0000 C.2     1  UNL1        0.1427
     20 C           8.7137   -1.2394    0.0000 C.3     1  UNL1        0.1391
     21 C           6.7218   -1.8584    0.0000 C.3     1  UNL1       -0.0498
     22 C           4.2716   -0.7534    0.0000 C.3     1  UNL1        0.0126
     23 C           4.3175    1.3120    0.0000 C.3     1  UNL1        0.0746
     24 C           8.6697   -0.2326    0.0000 C.3     1  UNL1       -0.0531
     25 C           6.0494    1.2920    0.0000 C.3     1  UNL1        0.1011
     26 C           7.8196   -2.8019    0.0000 C.2     1  UNL1        0.3398
     27 C           3.4037   -0.2084    0.0000 C.3     1  UNL1        0.0644
     28 C           9.5739   -0.7295    0.0000 C.ar    1  UNL1        0.0310
     29 C           4.3291    2.3120    0.0000 C.3     1  UNL1        0.0715
     30 C           2.9070    0.6594    0.0000 C.3     1  UNL1       -0.0360
     31 C           3.3998   -1.2084    0.0000 C.3     1  UNL1       -0.0360
     32 C           5.2008    2.8019    0.0000 C.2     1  UNL1        0.3096
     33 C          10.4921   -1.1256    0.0000 C.ar    1  UNL1       -0.0172
     34 C           9.6669    0.2662    0.0000 C.ar    1  UNL1        0.0984
     35 C          11.1526   -0.3748    0.0000 C.ar    1  UNL1        0.0921
     36 H           6.8078   -0.1576    0.0000 H       1  UNL1        0.0318
     37 H           6.4882   -3.0053    0.0000 H       1  UNL1        0.0743
     38 H           7.3362    1.2423    0.0000 H       1  UNL1        0.0269
     39 H           6.5391    1.2423    0.0000 H       1  UNL1        0.0269
     40 H           8.4143    0.1597    0.0000 H       1  UNL1        0.0273
     41 H           8.0157    0.8500    0.0000 H       1  UNL1        0.0273
     42 H           3.8452   -0.4471    0.0000 H       1  UNL1        0.0340
     43 H           9.2536   -1.5443    0.0000 H       1  UNL1        0.0793
     44 H           6.1848   -2.1684    0.0000 H       1  UNL1        0.0240
     45 H           7.0318   -2.3953    0.0000 H       1  UNL1        0.0240
     46 H           7.2587   -1.5483    0.0000 H       1  UNL1        0.0240
     47 H           3.6608   -0.6473    0.0000 H       1  UNL1        0.0346
     48 H           4.0626   -1.3371    0.0000 H       1  UNL1        0.0346
     49 H           4.0013    0.7787    0.0000 H       1  UNL1        0.0605
     50 H           8.9797   -0.7695    0.0000 H       1  UNL1        0.0237
     51 H           9.2066    0.0774    0.0000 H       1  UNL1        0.0237
     52 H           8.3597    0.3043    0.0000 H       1  UNL1        0.0237
     53 H           6.2547    0.7070    0.0000 H       1  UNL1        0.0704
     54 H           6.6612    1.3926    0.0000 H       1  UNL1        0.0704
     55 H           4.1238    2.8970    0.0000 H       1  UNL1        0.0403
     56 H           3.7173    2.2114    0.0000 H       1  UNL1        0.0403
     57 H           3.4451    0.9674    0.0000 H       1  UNL1        0.0257
     58 H           2.5990    1.1975    0.0000 H       1  UNL1        0.0257
     59 H           2.3689    0.3515    0.0000 H       1  UNL1        0.0257
     60 H           2.7798   -1.2060    0.0000 H       1  UNL1        0.0257
     61 H           3.3974   -1.8284    0.0000 H       1  UNL1        0.0257
     62 H           4.0198   -1.2108    0.0000 H       1  UNL1        0.0257
     63 H           2.9168    1.5182    0.0000 H       1  UNL1        0.2098
     64 H           2.0000   -0.3930    0.0000 H       1  UNL1        0.2101
     65 H          10.6280   -1.7305    0.0000 H       1  UNL1        0.0653
     66 H           9.2014    0.6757    0.0000 H       1  UNL1        0.1033
     67 H          11.7699   -0.4325    0.0000 H       1  UNL1        0.1029
@<TRIPOS>BOND
     1    10     1    1
     2     1    14    1
     3     2    20    1
     4     2    26    1
     5     3    25    1
     6     3    32    1
     7     4    19    2
     8    23     5    1
     9     5    63    1
    10     6    26    2
    11     7    27    1
    12     7    64    1
    13     8    34   ar
    14     8    35   ar
    15     9    32    2
    16    10    11    1
    17    10    12    1
    18    10    14    1
    19    11    13    1
    20    11    19    1
    21    11    21    1
    22    12    17    1
    23    12    20    1
    24    12    24    1
    25    13    15    1
    26    13    16    1
    27    13    36    1
    28    14    26    1
    29    14    37    1
    30    15    18    1
    31    15    23    1
    32    15    25    1
    33    16    17    1
    34    16    38    1
    35    16    39    1
    36    17    40    1
    37    17    41    1
    38    18    22    1
    39    18    27    1
    40    18    42    1
    41    19    22    1
    42    20    28    1
    43    20    43    1
    44    21    44    1
    45    21    45    1
    46    21    46    1
    47    22    47    1
    48    22    48    1
    49    23    29    1
    50    23    49    1
    51    24    50    1
    52    24    51    1
    53    24    52    1
    54    25    53    1
    55    25    54    1
    56    27    30    1
    57    27    31    1
    58    28    33   ar
    59    28    34   ar
    60    29    32    1
    61    29    55    1
    62    29    56    1
    63    30    57    1
    64    30    58    1
    65    30    59    1
    66    31    60    1
    67    31    61    1
    68    31    62    1
    69    33    35   ar
    70    33    65    1
    71    34    66    1
    72    35    67    1
