@<TRIPOS>MOLECULE
IMPHY006891
 122 129 0 0 0
SMALL
GASTEIGER

@<TRIPOS>ATOM
      1 O          14.8541   -0.8613    0.0000 O.3     1  UNL1       -0.3877
      2 O          12.2023    0.6974    0.0000 O.3     1  UNL1       -0.3875
      3 O           9.4651    0.2119    0.0000 O.3     1  UNL1       -0.3479
      4 O          11.3500   -2.8475    0.0000 O.2     1  UNL1       -0.3003
      5 O          16.0950   -5.7394    0.0000 O.3     1  UNL1       -0.4571
      6 O           7.7331    0.2119    0.0000 O.3     1  UNL1       -0.3456
      7 O          17.8545   -6.0219    0.0000 O.2     1  UNL1       -0.2456
      8 O           7.7331   -2.7881    0.0000 O.3     1  UNL1       -0.3890
      9 O           6.0010   -1.7881    0.0000 O.3     1  UNL1       -0.3403
     10 O           5.1350   -0.2881    0.0000 O.3     1  UNL1       -0.3405
     11 O           4.2690   -2.7881    0.0000 O.3     1  UNL1       -0.3841
     12 O           2.5369   -1.7881    0.0000 O.3     1  UNL1       -0.3864
     13 O           2.5369    0.2119    0.0000 O.3     1  UNL1       -0.3865
     14 O           5.1350    1.7119    0.0000 O.3     1  UNL1       -0.3460
     15 O           6.0010    3.2119    0.0000 O.3     1  UNL1       -0.3405
     16 O           3.4030    2.7119    0.0000 O.3     1  UNL1       -0.3841
     17 O           3.4030    4.7119    0.0000 O.3     1  UNL1       -0.3864
     18 O           5.1350    5.7119    0.0000 O.3     1  UNL1       -0.3865
     19 O           7.7331    4.2119    0.0000 O.3     1  UNL1       -0.3924
     20 C          14.8503   -1.8612    0.0000 C.3     1  UNL1        0.0751
     21 C          13.9862   -1.3579    0.0000 C.3     1  UNL1       -0.0077
     22 C          14.8464   -2.8612    0.0000 C.3     1  UNL1        0.0036
     23 C          13.1182   -1.8546    0.0000 C.3     1  UNL1       -0.0208
     24 C          12.2102   -1.3442    0.0000 C.3     1  UNL1        0.0579
     25 C          12.2062   -0.3026    0.0000 C.3     1  UNL1        0.0807
     26 C          15.7915   -3.1696    0.0000 C.3     1  UNL1       -0.0081
     27 C          13.9785   -3.3579    0.0000 C.3     1  UNL1       -0.0442
     28 C          13.1144   -2.8546    0.0000 C.3     1  UNL1       -0.0483
     29 C          15.7977   -1.5602    0.0000 C.3     1  UNL1       -0.0226
     30 C          14.0063   -0.3165    0.0000 C.3     1  UNL1       -0.0447
     31 C          13.1103    0.2147    0.0000 C.3     1  UNL1       -0.0226
     32 C          16.3782   -2.3671    0.0000 C.3     1  UNL1       -0.0432
     33 C          11.2812   -1.9047    0.0000 C.3     1  UNL1       -0.0357
     34 C          14.8426   -3.8612    0.0000 C.3     1  UNL1       -0.0564
     35 C          11.2729    0.2507    0.0000 C.3     1  UNL1        0.0034
     36 C          10.3353   -1.3731    0.0000 C.3     1  UNL1       -0.0254
     37 C          10.3312   -0.2881    0.0000 C.3     1  UNL1        0.0643
     38 C          12.2140   -2.3442    0.0000 C.2     1  UNL1        0.1294
     39 C          16.0985   -4.1213    0.0000 C.2     1  UNL1       -0.0222
     40 C          15.5090   -4.9291    0.0000 C.3     1  UNL1        0.1147
     41 C          17.0489   -4.4324    0.0000 C.2     1  UNL1        0.0252
     42 C          17.0467   -5.4324    0.0000 C.2     1  UNL1        0.3323
     43 C           8.5991   -0.2881    0.0000 C.3     1  UNL1        0.1624
     44 C           8.5991   -1.2881    0.0000 C.3     1  UNL1        0.0270
     45 C           7.7331   -1.7881    0.0000 C.3     1  UNL1        0.0884
     46 C           6.8671   -0.2881    0.0000 C.3     1  UNL1        0.0875
     47 C           6.8671   -1.2881    0.0000 C.3     1  UNL1        0.1136
     48 C           6.0010    0.2119    0.0000 C.3     1  UNL1       -0.0361
     49 C           5.1350   -1.2881    0.0000 C.3     1  UNL1        0.1884
     50 C           4.2690   -1.7881    0.0000 C.3     1  UNL1        0.1341
     51 C           3.4030   -1.2881    0.0000 C.3     1  UNL1        0.1141
     52 C           4.2690    0.2119    0.0000 C.3     1  UNL1        0.1134
     53 C           3.4030   -0.2881    0.0000 C.3     1  UNL1        0.1119
     54 C           4.2690    1.2119    0.0000 C.3     1  UNL1        0.0796
     55 C           5.1350    2.7119    0.0000 C.3     1  UNL1        0.1880
     56 C           4.2690    3.2119    0.0000 C.3     1  UNL1        0.1341
     57 C           4.2690    4.2119    0.0000 C.3     1  UNL1        0.1141
     58 C           5.1350    4.7119    0.0000 C.3     1  UNL1        0.1119
     59 C           6.0010    4.2119    0.0000 C.3     1  UNL1        0.1130
     60 C           6.8671    4.7119    0.0000 C.3     1  UNL1        0.0730
     61 H          14.7272   -0.9414    0.0000 H       1  UNL1        0.0332
     62 H          13.8527   -2.2824    0.0000 H       1  UNL1        0.0315
     63 H          16.4036   -3.2682    0.0000 H       1  UNL1        0.0353
     64 H          13.5781   -3.8313    0.0000 H       1  UNL1        0.0272
     65 H          14.3752   -3.8344    0.0000 H       1  UNL1        0.0272
     66 H          12.5042   -2.7445    0.0000 H       1  UNL1        0.0269
     67 H          12.9001   -3.4364    0.0000 H       1  UNL1        0.0269
     68 H          16.3362   -1.2530    0.0000 H       1  UNL1        0.0293
     69 H          15.5488   -0.9923    0.0000 H       1  UNL1        0.0293
     70 H          14.6150   -0.4343    0.0000 H       1  UNL1        0.0270
     71 H          14.2265    0.2631    0.0000 H       1  UNL1        0.0270
     72 H          13.5130    0.6861    0.0000 H       1  UNL1        0.0293
     73 H          12.7148    0.6922    0.0000 H       1  UNL1        0.0293
     74 H          16.8374   -2.7836    0.0000 H       1  UNL1        0.0272
     75 H          16.8406   -1.9542    0.0000 H       1  UNL1        0.0272
     76 H          10.8894   -2.3852    0.0000 H       1  UNL1        0.0276
     77 H          11.6876   -2.3730    0.0000 H       1  UNL1        0.0276
     78 H          14.2226   -3.8588    0.0000 H       1  UNL1        0.0236
     79 H          14.8402   -4.4812    0.0000 H       1  UNL1        0.0236
     80 H          15.4626   -3.8636    0.0000 H       1  UNL1        0.0236
     81 H          11.6757    0.7221    0.0000 H       1  UNL1        0.0318
     82 H          10.8774    0.7282    0.0000 H       1  UNL1        0.0318
     83 H           9.7241   -1.2694    0.0000 H       1  UNL1        0.0290
     84 H          10.1285   -1.9576    0.0000 H       1  UNL1        0.0290
     85 H           9.7948   -0.5992    0.0000 H       1  UNL1        0.0598
     86 H          15.3923   -0.5533    0.0000 H       1  UNL1        0.2102
     87 H          12.2164   -2.9642    0.0000 H       1  UNL1        0.1033
     88 H          12.7381    1.0095    0.0000 H       1  UNL1        0.2102
     89 H          15.0491   -4.5132    0.0000 H       1  UNL1        0.0746
     90 H          15.0473   -5.3430    0.0000 H       1  UNL1        0.0746
     91 H          17.5512   -4.0690    0.0000 H       1  UNL1        0.0689
     92 H           8.5991    0.3319    0.0000 H       1  UNL1        0.0910
     93 H           8.8112   -1.8708    0.0000 H       1  UNL1        0.0340
     94 H           9.2097   -1.1805    0.0000 H       1  UNL1        0.0340
     95 H           8.2700   -2.0981    0.0000 H       1  UNL1        0.0622
     96 H           6.8671    0.3319    0.0000 H       1  UNL1        0.0621
     97 H           6.3301   -0.9781    0.0000 H       1  UNL1        0.0649
     98 H           6.3110    0.7488    0.0000 H       1  UNL1        0.0255
     99 H           5.4641    0.5219    0.0000 H       1  UNL1        0.0255
    100 H           5.6910   -0.3251    0.0000 H       1  UNL1        0.0255
    101 H           8.2700   -3.0981    0.0000 H       1  UNL1        0.2099
    102 H           5.1350   -1.9081    0.0000 H       1  UNL1        0.0938
    103 H           3.7320   -2.0981    0.0000 H       1  UNL1        0.0671
    104 H           2.8660   -0.9781    0.0000 H       1  UNL1        0.0648
    105 H           4.8059    0.5219    0.0000 H       1  UNL1        0.0647
    106 H           3.4030    0.3319    0.0000 H       1  UNL1        0.0647
    107 H           3.7320   -3.0981    0.0000 H       1  UNL1        0.2101
    108 H           4.0569    1.7945    0.0000 H       1  UNL1        0.0587
    109 H           3.6584    1.1042    0.0000 H       1  UNL1        0.0587
    110 H           2.0000   -1.4781    0.0000 H       1  UNL1        0.2100
    111 H           2.5369    0.8319    0.0000 H       1  UNL1        0.2100
    112 H           4.5981    2.4019    0.0000 H       1  UNL1        0.0937
    113 H           3.7320    3.5219    0.0000 H       1  UNL1        0.0671
    114 H           4.2690    4.8319    0.0000 H       1  UNL1        0.0648
    115 H           5.6720    5.0219    0.0000 H       1  UNL1        0.0647
    116 H           6.5380    3.9019    0.0000 H       1  UNL1        0.0647
    117 H           7.2656    5.1868    0.0000 H       1  UNL1        0.0584
    118 H           6.4685    5.1868    0.0000 H       1  UNL1        0.0584
    119 H           2.8660    3.0219    0.0000 H       1  UNL1        0.2101
    120 H           3.4030    5.3319    0.0000 H       1  UNL1        0.2100
    121 H           5.6720    6.0219    0.0000 H       1  UNL1        0.2100
    122 H           8.2700    4.5219    0.0000 H       1  UNL1        0.2095
@<TRIPOS>BOND
     1    20     1    1
     2     1    86    1
     3    25     2    1
     4     2    88    1
     5    37     3    1
     6    43     3    1
     7     4    38    2
     8     5    40    1
     9     5    42    1
    10     6    43    1
    11     6    46    1
    12     7    42    2
    13    45     8    1
    14     8   101    1
    15    47     9    1
    16    49     9    1
    17    10    49    1
    18    10    52    1
    19    50    11    1
    20    11   107    1
    21    51    12    1
    22    12   110    1
    23    53    13    1
    24    13   111    1
    25    14    54    1
    26    55    14    1
    27    15    55    1
    28    15    59    1
    29    56    16    1
    30    16   119    1
    31    57    17    1
    32    17   120    1
    33    58    18    1
    34    18   121    1
    35    19    60    1
    36    19   122    1
    37    20    21    1
    38    20    22    1
    39    20    29    1
    40    21    23    1
    41    21    30    1
    42    21    61    1
    43    22    26    1
    44    22    27    1
    45    22    34    1
    46    23    24    1
    47    23    28    1
    48    23    62    1
    49    24    25    1
    50    24    33    1
    51    24    38    1
    52    25    31    1
    53    25    35    1
    54    26    32    1
    55    26    39    1
    56    26    63    1
    57    27    28    1
    58    27    64    1
    59    27    65    1
    60    28    66    1
    61    28    67    1
    62    29    32    1
    63    29    68    1
    64    29    69    1
    65    30    31    1
    66    30    70    1
    67    30    71    1
    68    31    72    1
    69    31    73    1
    70    32    74    1
    71    32    75    1
    72    33    36    1
    73    33    76    1
    74    33    77    1
    75    34    78    1
    76    34    79    1
    77    34    80    1
    78    35    37    1
    79    35    81    1
    80    35    82    1
    81    36    37    1
    82    36    83    1
    83    36    84    1
    84    37    85    1
    85    38    87    1
    86    39    40    1
    87    39    41    2
    88    40    89    1
    89    40    90    1
    90    41    42    1
    91    41    91    1
    92    43    44    1
    93    43    92    1
    94    44    45    1
    95    44    93    1
    96    44    94    1
    97    45    47    1
    98    45    95    1
    99    46    47    1
   100    46    48    1
   101    46    96    1
   102    47    97    1
   103    48    98    1
   104    48    99    1
   105    48   100    1
   106    49    50    1
   107    49   102    1
   108    50    51    1
   109    50   103    1
   110    51    53    1
   111    51   104    1
   112    52    53    1
   113    52    54    1
   114    52   105    1
   115    53   106    1
   116    54   108    1
   117    54   109    1
   118    55    56    1
   119    55   112    1
   120    56    57    1
   121    56   113    1
   122    57    58    1
   123    57   114    1
   124    58    59    1
   125    58   115    1
   126    59    60    1
   127    59   116    1
   128    60   117    1
   129    60   118    1
