@<TRIPOS>MOLECULE
IMPHY000169
 42 43 0 0 0
SMALL
GASTEIGER

@<TRIPOS>ATOM
      1 O           2.1896    1.6858    0.0000 O.3     1  UNL1       -0.4633
      2 O           2.0000    3.3686    0.0000 O.2     1  UNL1       -0.2508
      3 N           4.3802    1.1858    0.0000 N.3     1  UNL1       -0.2927
      4 C           5.2742    0.6512    0.0000 C.3     1  UNL1        0.0108
      5 C           4.3802    2.1858    0.0000 C.3     1  UNL1        0.0209
      6 C           6.1803    1.1650    0.0000 C.3     1  UNL1       -0.0373
      7 C           5.2742    2.7205    0.0000 C.3     1  UNL1       -0.0368
      8 C           6.1803    2.2066    0.0000 C.3     1  UNL1       -0.0502
      9 C           5.2626   -0.3488    0.0000 C.3     1  UNL1       -0.0373
     10 C           3.5984    0.5623    0.0000 C.3     1  UNL1        0.0338
     11 C           3.5984    2.8093    0.0000 C.3     1  UNL1        0.0605
     12 C           6.1228   -0.8588    0.0000 C.3     1  UNL1       -0.0517
     13 C           2.6235    0.7848    0.0000 C.3     1  UNL1        0.1051
     14 C           2.6235    2.5868    0.0000 C.2     1  UNL1        0.3086
     15 C           6.1112   -1.8587    0.0000 C.3     1  UNL1       -0.0533
     16 C           6.9714   -2.3687    0.0000 C.3     1  UNL1       -0.0559
     17 C           6.9599   -3.3686    0.0000 C.3     1  UNL1       -0.0653
     18 H           4.7331    0.3484    0.0000 H       1  UNL1        0.0463
     19 H           4.4372    3.0339    0.0000 H       1  UNL1        0.0468
     20 H           6.3893    0.5813    0.0000 H       1  UNL1        0.0280
     21 H           6.7911    1.2711    0.0000 H       1  UNL1        0.0280
     22 H           5.6678    3.1995    0.0000 H       1  UNL1        0.0280
     23 H           4.8696    3.1903    0.0000 H       1  UNL1        0.0280
     24 H           6.7911    2.1005    0.0000 H       1  UNL1        0.0266
     25 H           6.3893    2.7903    0.0000 H       1  UNL1        0.0266
     26 H           4.6533   -0.2341    0.0000 H       1  UNL1        0.0280
     27 H           5.0438   -0.9289    0.0000 H       1  UNL1        0.0280
     28 H           3.3294    0.0037    0.0000 H       1  UNL1        0.0460
     29 H           4.0832    0.1758    0.0000 H       1  UNL1        0.0460
     30 H           4.0832    3.1959    0.0000 H       1  UNL1        0.0393
     31 H           3.3294    3.3679    0.0000 H       1  UNL1        0.0393
     32 H           6.7321   -0.9735    0.0000 H       1  UNL1        0.0266
     33 H           6.3416   -0.2786    0.0000 H       1  UNL1        0.0266
     34 H           2.0190    0.6469    0.0000 H       1  UNL1        0.0710
     35 H           2.6235    0.1648    0.0000 H       1  UNL1        0.0710
     36 H           5.5020   -1.7440    0.0000 H       1  UNL1        0.0265
     37 H           5.8925   -2.4388    0.0000 H       1  UNL1        0.0265
     38 H           7.5807   -2.4834    0.0000 H       1  UNL1        0.0263
     39 H           7.1902   -1.7886    0.0000 H       1  UNL1        0.0263
     40 H           6.3399   -3.3614    0.0000 H       1  UNL1        0.0230
     41 H           6.9527   -3.9886    0.0000 H       1  UNL1        0.0230
     42 H           7.5798   -3.3758    0.0000 H       1  UNL1        0.0230
@<TRIPOS>BOND
     1     1    13    1
     2     1    14    1
     3     2    14    2
     4     3     4    1
     5     3     5    1
     6     3    10    1
     7     4     6    1
     8     4     9    1
     9     4    18    1
    10     5     7    1
    11     5    11    1
    12     5    19    1
    13     6     8    1
    14     6    20    1
    15     6    21    1
    16     7     8    1
    17     7    22    1
    18     7    23    1
    19     8    24    1
    20     8    25    1
    21     9    12    1
    22     9    26    1
    23     9    27    1
    24    10    13    1
    25    10    28    1
    26    10    29    1
    27    11    14    1
    28    11    30    1
    29    11    31    1
    30    12    15    1
    31    12    32    1
    32    12    33    1
    33    13    34    1
    34    13    35    1
    35    15    16    1
    36    15    36    1
    37    15    37    1
    38    16    17    1
    39    16    38    1
    40    16    39    1
    41    17    40    1
    42    17    41    1
    43    17    42    1
