@<TRIPOS>MOLECULE
IMPHY013263
 82 86 0 0 0
SMALL
GASTEIGER

@<TRIPOS>ATOM
      1 C           6.6507   -0.8139    0.0000 C.3     1  UNL1       -0.0231
      2 C           5.7847   -0.3139    0.0000 C.3     1  UNL1       -0.0230
      3 C           7.5167   -0.3139    0.0000 C.3     1  UNL1       -0.0294
      4 C           7.5167    0.6861    0.0000 C.3     1  UNL1       -0.0254
      5 C           4.8746   -0.8208    0.0000 C.3     1  UNL1       -0.0292
      6 C           8.4106    1.2207    0.0000 C.3     1  UNL1       -0.0297
      7 C           4.8666   -1.8624    0.0000 C.3     1  UNL1       -0.0287
      8 C           5.7847    0.6861    0.0000 C.3     1  UNL1       -0.0463
      9 C           9.3167    0.7069    0.0000 C.3     1  UNL1       -0.0261
     10 C           6.6507    1.1861    0.0000 C.3     1  UNL1       -0.0466
     11 C           6.6667   -1.8554    0.0000 C.3     1  UNL1       -0.0463
     12 C           8.4106   -0.8486    0.0000 C.3     1  UNL1       -0.0487
     13 C           5.7687   -2.3832    0.0000 C.3     1  UNL1       -0.0468
     14 C           9.3167   -0.3348    0.0000 C.3     1  UNL1       -0.0468
     15 C           3.9478   -0.2567    0.0000 C.3     1  UNL1       -0.0440
     16 C           7.5167   -1.3139    0.0000 C.3     1  UNL1       -0.0588
     17 C           4.9186    0.1861    0.0000 C.3     1  UNL1       -0.0588
     18 C           3.9312   -2.4121    0.0000 C.3     1  UNL1       -0.0469
     19 C           8.3856    2.3054    0.0000 C.3     1  UNL1       -0.0492
     20 C          10.2605    1.2421    0.0000 C.3     1  UNL1       -0.0382
     21 C           7.5167    1.6861    0.0000 C.3     1  UNL1       -0.0590
     22 C           2.9999   -0.7846    0.0000 C.3     1  UNL1       -0.0346
     23 C           2.9916   -1.8696    0.0000 C.3     1  UNL1       -0.0474
     24 C           4.8589   -2.8624    0.0000 C.3     1  UNL1       -0.0593
     25 C          10.1866    0.2136    0.0000 C.3     1  UNL1       -0.0590
     26 C           9.3167    2.8624    0.0000 C.3     1  UNL1       -0.0525
     27 C          10.2605    2.3271    0.0000 C.3     1  UNL1       -0.0499
     28 C          11.1246    0.7388    0.0000 C.3     1  UNL1       -0.0619
     29 C           2.0000   -0.7731    0.0000 C.3     1  UNL1       -0.0598
     30 C           2.5100    0.0871    0.0000 C.3     1  UNL1       -0.0598
     31 H           8.2561    0.1054    0.0000 H       1  UNL1        0.0312
     32 H           5.6058   -1.2543    0.0000 H       1  UNL1        0.0312
     33 H           9.1401    1.6570    0.0000 H       1  UNL1        0.0311
     34 H           5.5726    1.2687    0.0000 H       1  UNL1        0.0271
     35 H           5.1741    0.5784    0.0000 H       1  UNL1        0.0271
     36 H           7.0492    1.6610    0.0000 H       1  UNL1        0.0271
     37 H           6.2522    1.6610    0.0000 H       1  UNL1        0.0271
     38 H           6.8848   -2.4358    0.0000 H       1  UNL1        0.0271
     39 H           7.2759   -1.7399    0.0000 H       1  UNL1        0.0271
     40 H           8.0060   -1.3184    0.0000 H       1  UNL1        0.0268
     41 H           8.8043   -1.3276    0.0000 H       1  UNL1        0.0268
     42 H           5.3714   -2.8592    0.0000 H       1  UNL1        0.0271
     43 H           6.1697   -2.8561    0.0000 H       1  UNL1        0.0271
     44 H           9.5258   -0.9184    0.0000 H       1  UNL1        0.0271
     45 H           9.9276   -0.2287    0.0000 H       1  UNL1        0.0271
     46 H           4.3560    0.2100    0.0000 H       1  UNL1        0.0273
     47 H           3.5579    0.2253    0.0000 H       1  UNL1        0.0273
     48 H           7.2067   -1.8509    0.0000 H       1  UNL1        0.0235
     49 H           8.0536   -1.6239    0.0000 H       1  UNL1        0.0235
     50 H           7.8267   -0.7770    0.0000 H       1  UNL1        0.0235
     51 H           5.2286    0.7230    0.0000 H       1  UNL1        0.0235
     52 H           4.3817    0.4961    0.0000 H       1  UNL1        0.0235
     53 H           4.6086   -0.3509    0.0000 H       1  UNL1        0.0235
     54 H           3.5339   -2.8881    0.0000 H       1  UNL1        0.0271
     55 H           4.3322   -2.8850    0.0000 H       1  UNL1        0.0271
     56 H           8.1631    2.8841    0.0000 H       1  UNL1        0.0268
     57 H           7.7773    2.1852    0.0000 H       1  UNL1        0.0268
     58 H          10.7980    1.5511    0.0000 H       1  UNL1        0.0303
     59 H           8.1367    1.6861    0.0000 H       1  UNL1        0.0235
     60 H           7.5167    2.3061    0.0000 H       1  UNL1        0.0235
     61 H           6.8967    1.6861    0.0000 H       1  UNL1        0.0235
     62 H           2.3816   -1.7588    0.0000 H       1  UNL1        0.0271
     63 H           2.7780   -2.4517    0.0000 H       1  UNL1        0.0271
     64 H           4.2389   -2.8576    0.0000 H       1  UNL1        0.0235
     65 H           4.8541   -3.4823    0.0000 H       1  UNL1        0.0235
     66 H           5.4789   -2.8671    0.0000 H       1  UNL1        0.0235
     67 H           9.8807   -0.3257    0.0000 H       1  UNL1        0.0235
     68 H          10.7259   -0.0923    0.0000 H       1  UNL1        0.0235
     69 H          10.4924    0.7529    0.0000 H       1  UNL1        0.0235
     70 H           9.7103    3.3414    0.0000 H       1  UNL1        0.0265
     71 H           8.9121    3.3321    0.0000 H       1  UNL1        0.0265
     72 H          10.8714    2.2210    0.0000 H       1  UNL1        0.0268
     73 H          10.4696    2.9108    0.0000 H       1  UNL1        0.0268
     74 H          10.8125    0.2030    0.0000 H       1  UNL1        0.0233
     75 H          11.6603    0.4267    0.0000 H       1  UNL1        0.0233
     76 H          11.4367    1.2745    0.0000 H       1  UNL1        0.0233
     77 H           2.0072   -0.1531    0.0000 H       1  UNL1        0.0235
     78 H           1.3800   -0.7659    0.0000 H       1  UNL1        0.0235
     79 H           1.9928   -1.3930    0.0000 H       1  UNL1        0.0235
     80 H           3.0505    0.3909    0.0000 H       1  UNL1        0.0235
     81 H           2.2062    0.6276    0.0000 H       1  UNL1        0.0235
     82 H           1.9695   -0.2167    0.0000 H       1  UNL1        0.0235
@<TRIPOS>BOND
     1     1     2    1
     2     1     3    1
     3     1    11    1
     4     1    16    1
     5     2     5    1
     6     2     8    1
     7     2    17    1
     8     3     4    1
     9     3    12    1
    10     3    31    1
    11     4     6    1
    12     4    10    1
    13     4    21    1
    14     5     7    1
    15     5    15    1
    16     5    32    1
    17     6     9    1
    18     6    19    1
    19     6    33    1
    20     7    13    1
    21     7    18    1
    22     7    24    1
    23     8    10    1
    24     8    34    1
    25     8    35    1
    26     9    14    1
    27     9    20    1
    28     9    25    1
    29    10    36    1
    30    10    37    1
    31    11    13    1
    32    11    38    1
    33    11    39    1
    34    12    14    1
    35    12    40    1
    36    12    41    1
    37    13    42    1
    38    13    43    1
    39    14    44    1
    40    14    45    1
    41    15    22    1
    42    15    46    1
    43    15    47    1
    44    16    48    1
    45    16    49    1
    46    16    50    1
    47    17    51    1
    48    17    52    1
    49    17    53    1
    50    18    23    1
    51    18    54    1
    52    18    55    1
    53    19    26    1
    54    19    56    1
    55    19    57    1
    56    20    27    1
    57    20    28    1
    58    20    58    1
    59    21    59    1
    60    21    60    1
    61    21    61    1
    62    22    23    1
    63    22    29    1
    64    22    30    1
    65    23    62    1
    66    23    63    1
    67    24    64    1
    68    24    65    1
    69    24    66    1
    70    25    67    1
    71    25    68    1
    72    25    69    1
    73    26    27    1
    74    26    70    1
    75    26    71    1
    76    27    72    1
    77    27    73    1
    78    28    74    1
    79    28    75    1
    80    28    76    1
    81    29    77    1
    82    29    78    1
    83    29    79    1
    84    30    80    1
    85    30    81    1
    86    30    82    1
