@<TRIPOS>MOLECULE
IMPHY001028
 77 81 0 0 0
SMALL
GASTEIGER

@<TRIPOS>ATOM
      1 O           6.8671    0.0950    0.0000 O.3     1  UNL1       -0.3313
      2 O           4.2690   -2.4050    0.0000 O.3     1  UNL1       -0.3405
      3 O           6.0010   -2.4050    0.0000 O.3     1  UNL1       -0.3460
      4 O           7.7331   -2.4050    0.0000 O.3     1  UNL1       -0.3865
      5 O           9.4651   -1.4050    0.0000 O.3     1  UNL1       -0.3864
      6 O           7.7331    1.5950    0.0000 O.3     1  UNL1       -0.4515
      7 O           6.0010   -4.4050    0.0000 O.3     1  UNL1       -0.3841
      8 O           9.4651    0.5950    0.0000 O.3     1  UNL1       -0.3829
      9 O           4.2690   -5.4050    0.0000 O.3     1  UNL1       -0.3864
     10 O           2.5369   -4.4050    0.0000 O.3     1  UNL1       -0.3865
     11 O           2.5369   -1.4050    0.0000 O.3     1  UNL1       -0.3924
     12 O           6.0010    3.5950    0.0000 O.2     1  UNL1       -0.1997
     13 O           4.2526    0.5604    0.0000 O.3     1  UNL1       -0.5057
     14 O           2.4709    3.6192    0.0000 O.3     1  UNL1       -0.5063
     15 O          10.3312    3.0950    0.0000 O.3     1  UNL1       -0.4914
     16 O          10.3312    5.0950    0.0000 O.3     1  UNL1       -0.5033
     17 C           6.8671   -0.9050    0.0000 C.3     1  UNL1        0.1144
     18 C           7.7331   -1.4050    0.0000 C.3     1  UNL1        0.1120
     19 C           8.5991   -0.9050    0.0000 C.3     1  UNL1        0.1152
     20 C           5.1350   -3.9050    0.0000 C.3     1  UNL1        0.1341
     21 C           8.5991    0.0950    0.0000 C.3     1  UNL1        0.1454
     22 C           4.2690   -4.4050    0.0000 C.3     1  UNL1        0.1141
     23 C           5.1350   -2.9050    0.0000 C.3     1  UNL1        0.1880
     24 C           3.4030   -3.9050    0.0000 C.3     1  UNL1        0.1119
     25 C           3.4030   -2.9050    0.0000 C.3     1  UNL1        0.1130
     26 C           7.7331    0.5950    0.0000 C.3     1  UNL1        0.2312
     27 C           6.0010   -1.4050    0.0000 C.3     1  UNL1        0.0796
     28 C           2.5369   -2.4050    0.0000 C.3     1  UNL1        0.0730
     29 C           6.8671    2.0950    0.0000 C.ar    1  UNL1        0.2288
     30 C           6.8671    3.0950    0.0000 C.ar    1  UNL1        0.4046
     31 C           6.0010    1.5950    0.0000 C.ar    1  UNL1        0.0093
     32 C           5.1350    2.0950    0.0000 C.ar    1  UNL1        0.1241
     33 C           7.7331    3.5950    0.0000 C.ar    1  UNL1        0.0865
     34 C           5.1350    3.0950    0.0000 C.ar    1  UNL1        0.3708
     35 C           4.2411    1.5603    0.0000 C.ar    1  UNL1        0.1366
     36 C           4.2411    3.6297    0.0000 C.ar    1  UNL1        0.0847
     37 C           8.5991    3.0950    0.0000 C.ar    1  UNL1       -0.0001
     38 C           7.7331    4.5950    0.0000 C.ar    1  UNL1       -0.0418
     39 C           3.3350    2.0742    0.0000 C.ar    1  UNL1        0.0225
     40 C           3.3350    3.1158    0.0000 C.ar    1  UNL1        0.1293
     41 C           9.4651    3.5950    0.0000 C.ar    1  UNL1        0.1621
     42 C           8.5991    5.0950    0.0000 C.ar    1  UNL1       -0.0157
     43 C           9.4651    4.5950    0.0000 C.ar    1  UNL1        0.1585
     44 C          11.1972    3.5950    0.0000 C.3     1  UNL1        0.0790
     45 H           6.3301   -0.5950    0.0000 H       1  UNL1        0.0647
     46 H           8.2700   -1.7150    0.0000 H       1  UNL1        0.0647
     47 H           9.1360   -0.5950    0.0000 H       1  UNL1        0.0648
     48 H           5.6720   -3.5950    0.0000 H       1  UNL1        0.0671
     49 H           8.5991    0.7150    0.0000 H       1  UNL1        0.0683
     50 H           4.8059   -4.7150    0.0000 H       1  UNL1        0.0648
     51 H           5.1350   -2.2850    0.0000 H       1  UNL1        0.0937
     52 H           2.8660   -3.5950    0.0000 H       1  UNL1        0.0647
     53 H           3.4030   -2.2850    0.0000 H       1  UNL1        0.0647
     54 H           7.1962    0.9050    0.0000 H       1  UNL1        0.1084
     55 H           5.7890   -0.8224    0.0000 H       1  UNL1        0.0587
     56 H           5.3905   -1.5127    0.0000 H       1  UNL1        0.0587
     57 H           1.9264   -2.2973    0.0000 H       1  UNL1        0.0584
     58 H           2.3249   -2.9876    0.0000 H       1  UNL1        0.0584
     59 H           8.2700   -2.7150    0.0000 H       1  UNL1        0.2100
     60 H          10.0021   -1.0950    0.0000 H       1  UNL1        0.2100
     61 H           6.5380   -4.0950    0.0000 H       1  UNL1        0.2101
     62 H           9.4651    1.2150    0.0000 H       1  UNL1        0.2102
     63 H           3.7320   -5.7150    0.0000 H       1  UNL1        0.2100
     64 H           2.0000   -4.0950    0.0000 H       1  UNL1        0.2100
     65 H           2.0000   -1.0950    0.0000 H       1  UNL1        0.2095
     66 H           6.0010    0.9750    0.0000 H       1  UNL1        0.0667
     67 H           4.2482    4.2496    0.0000 H       1  UNL1        0.0749
     68 H           8.5991    2.4750    0.0000 H       1  UNL1        0.0664
     69 H           7.1962    4.9050    0.0000 H       1  UNL1        0.0628
     70 H           2.7993    1.7621    0.0000 H       1  UNL1        0.0691
     71 H           8.5991    5.7150    0.0000 H       1  UNL1        0.0655
     72 H           3.7193    0.2442    0.0000 H       1  UNL1        0.2922
     73 H           2.4733    4.2392    0.0000 H       1  UNL1        0.2921
     74 H          10.3312    5.7150    0.0000 H       1  UNL1        0.2923
     75 H          11.5072    3.0581    0.0000 H       1  UNL1        0.0660
     76 H          11.7341    3.9050    0.0000 H       1  UNL1        0.0660
     77 H          10.8872    4.1319    0.0000 H       1  UNL1        0.0660
@<TRIPOS>UNITY_ATOM_ATTR
12 1
charge 1
@<TRIPOS>BOND
     1     1    17    1
     2     1    26    1
     3     2    23    1
     4     2    25    1
     5    23     3    1
     6     3    27    1
     7    18     4    1
     8     4    59    1
     9     5    19    1
    10     5    60    1
    11    26     6    1
    12     6    29    1
    13     7    20    1
    14     7    61    1
    15     8    21    1
    16     8    62    1
    17     9    22    1
    18     9    63    1
    19    24    10    1
    20    10    64    1
    21    11    28    1
    22    11    65    1
    23    12    30   ar
    24    12    34   ar
    25    13    35    1
    26    13    72    1
    27    14    40    1
    28    14    73    1
    29    15    41    1
    30    15    44    1
    31    16    43    1
    32    16    74    1
    33    17    18    1
    34    17    27    1
    35    17    45    1
    36    18    19    1
    37    18    46    1
    38    19    21    1
    39    19    47    1
    40    20    22    1
    41    20    23    1
    42    20    48    1
    43    21    26    1
    44    21    49    1
    45    22    24    1
    46    22    50    1
    47    23    51    1
    48    24    25    1
    49    24    52    1
    50    25    28    1
    51    25    53    1
    52    26    54    1
    53    27    55    1
    54    27    56    1
    55    28    57    1
    56    28    58    1
    57    29    30   ar
    58    29    31   ar
    59    30    33    1
    60    31    32   ar
    61    31    66    1
    62    32    34   ar
    63    32    35   ar
    64    33    37   ar
    65    33    38   ar
    66    34    36   ar
    67    35    39   ar
    68    36    40   ar
    69    36    67    1
    70    37    41   ar
    71    37    68    1
    72    38    42   ar
    73    38    69    1
    74    39    40   ar
    75    39    70    1
    76    41    43   ar
    77    42    43   ar
    78    42    71    1
    79    44    75    1
    80    44    76    1
    81    44    77    1
