@<TRIPOS>MOLECULE
IMPHY000535
 24 26 0 0 0
SMALL
GASTEIGER

@<TRIPOS>ATOM
      1 C           2.5889    2.4999    0.0000 C.ar    1  UNL1        0.1547
      2 C           2.5889    1.5004    0.0000 C.ar    1  UNL1        0.1158
      3 O           3.4593    3.0030    0.0000 O.2     1  UNL1       -0.4531
      4 C           1.7274    3.0030    0.0000 C.ar    1  UNL1        0.0780
      5 C           1.7252    1.0062    0.0000 C.ar    1  UNL1        0.2433
      6 C           3.4549    0.9995    0.0000 C.ar    1  UNL1        0.2049
      7 C           4.3275    2.5043    0.0000 C.ar    1  UNL1        0.1485
      8 C           0.8659    2.5043    0.0000 C.ar    1  UNL1        0.1837
      9 C           0.8659    1.5048    0.0000 C.ar    1  UNL1        0.2680
     10 O           1.7230    0.0067    0.0000 O.3     1  UNL1       -0.2828
     11 C           4.3275    1.5026    0.0000 C.ar    1  UNL1        0.0797
     12 O           3.4549    0.0000    0.0000 O.2     1  UNL1       -0.2862
     13 C           5.1935    3.0074    0.0000 C.ar    1  UNL1        0.0379
     14 O           0.0000    3.0052    0.0000 O.3     1  UNL1       -0.4680
     15 O           0.0000    1.0040    0.0000 O.3     1  UNL1       -0.2799
     16 C           5.1912    4.0070    0.0000 C.ar    1  UNL1        0.0433
     17 C           6.0594    2.5066    0.0000 C.ar    1  UNL1        0.0065
     18 C           0.0000    4.0047    0.0000 C.3     1  UNL1        0.2526
     19 C           6.0572    4.5078    0.0000 C.ar    1  UNL1        0.1775
     20 C           6.9254    3.0074    0.0000 C.ar    1  UNL1        0.0453
     21 C           6.9231    4.0092    0.0000 C.ar    1  UNL1        0.2293
     22 O           6.0550    5.5073    0.0000 O.3     1  UNL1       -0.4682
     23 O           7.7913    4.5101    0.0000 O.3     1  UNL1       -0.2833
     24 C           5.1890    6.0060    0.0000 C.3     1  UNL1        0.2526
@<TRIPOS>BOND
     1     1     2   ar
     2     1     3   ar
     3     1     4   ar
     4     2     5   ar
     5     2     6   ar
     6     3     7   ar
     7     4     8   ar
     8     5     9   ar
     9     5    10    1
    10     6    11   ar
    11     6    12    2
    12     7    11   ar
    13     7    13    1
    14     8     9   ar
    15     8    14    1
    16     9    15    1
    17    13    16   ar
    18    13    17   ar
    19    14    18    1
    20    16    19   ar
    21    17    20   ar
    22    19    21   ar
    23    19    22    1
    24    20    21   ar
    25    21    23    1
    26    22    24    1
