@<TRIPOS>MOLECULE
IMPHY017647
 39 40 0 0 0
SMALL
GASTEIGER

@<TRIPOS>ATOM
      1 O           7.2067    1.7123    0.0000 O.3     1  UNL1       -0.4773
      2 O           5.4747    1.6923    0.0000 O.2     1  UNL1       -0.2455
      3 C           5.4641   -1.3323    0.0000 C.3     1  UNL1       -0.0103
      4 C           5.4641   -0.3323    0.0000 C.2     1  UNL1       -0.0532
      5 C           4.5981   -1.8323    0.0000 C.3     1  UNL1       -0.0434
      6 C           6.3580   -1.8669    0.0000 C.3     1  UNL1       -0.0436
      7 C           3.7320   -0.3323    0.0000 C.3     1  UNL1       -0.0167
      8 C           4.5981    0.1677    0.0000 C.3     1  UNL1       -0.0239
      9 C           3.7320   -1.3323    0.0000 C.3     1  UNL1       -0.0455
     10 C           7.2641   -1.3531    0.0000 C.3     1  UNL1       -0.0481
     11 C           5.4641   -2.3323    0.0000 C.3     1  UNL1       -0.0558
     12 C           6.3580    0.2024    0.0000 C.2     1  UNL1        0.0362
     13 C           7.2641   -0.3115    0.0000 C.3     1  UNL1       -0.0209
     14 C           2.8660    0.1677    0.0000 C.2     1  UNL1       -0.0763
     15 C           6.3465    1.2023    0.0000 C.2     1  UNL1        0.3327
     16 C           2.0000   -0.3323    0.0000 C.3     1  UNL1       -0.0438
     17 C           2.8660    1.1677    0.0000 C.2     1  UNL1       -0.0994
     18 H           4.1996   -2.3072    0.0000 H       1  UNL1        0.0274
     19 H           4.9966   -2.3072    0.0000 H       1  UNL1        0.0274
     20 H           5.9534   -2.3367    0.0000 H       1  UNL1        0.0274
     21 H           6.7517   -2.3460    0.0000 H       1  UNL1        0.0274
     22 H           3.7320    0.2877    0.0000 H       1  UNL1        0.0348
     23 H           4.9966    0.6427    0.0000 H       1  UNL1        0.0316
     24 H           4.1996    0.6427    0.0000 H       1  UNL1        0.0316
     25 H           3.1215   -1.2246    0.0000 H       1  UNL1        0.0271
     26 H           3.5200   -1.9149    0.0000 H       1  UNL1        0.0271
     27 H           7.4732   -1.9368    0.0000 H       1  UNL1        0.0269
     28 H           7.8750   -1.2470    0.0000 H       1  UNL1        0.0269
     29 H           4.8441   -2.3323    0.0000 H       1  UNL1        0.0238
     30 H           5.4641   -2.9523    0.0000 H       1  UNL1        0.0238
     31 H           6.0841   -2.3323    0.0000 H       1  UNL1        0.0238
     32 H           7.8750   -0.4175    0.0000 H       1  UNL1        0.0315
     33 H           7.4732    0.2722    0.0000 H       1  UNL1        0.0315
     34 H           1.6900    0.2047    0.0000 H       1  UNL1        0.0274
     35 H           1.4631   -0.6423    0.0000 H       1  UNL1        0.0274
     36 H           2.3100   -0.8692    0.0000 H       1  UNL1        0.0274
     37 H           3.4030    1.4777    0.0000 H       1  UNL1        0.0534
     38 H           2.3291    1.4777    0.0000 H       1  UNL1        0.0534
     39 H           7.1995    2.3323    0.0000 H       1  UNL1        0.2954
@<TRIPOS>BOND
     1     1    15    1
     2     1    39    1
     3     2    15    2
     4     3     4    1
     5     3     5    1
     6     3     6    1
     7     3    11    1
     8     4     8    1
     9     4    12    2
    10     5     9    1
    11     5    18    1
    12     5    19    1
    13     6    10    1
    14     6    20    1
    15     6    21    1
    16     7     8    1
    17     7     9    1
    18     7    14    1
    19     7    22    1
    20     8    23    1
    21     8    24    1
    22     9    25    1
    23     9    26    1
    24    10    13    1
    25    10    27    1
    26    10    28    1
    27    11    29    1
    28    11    30    1
    29    11    31    1
    30    12    13    1
    31    12    15    1
    32    13    32    1
    33    13    33    1
    34    14    16    1
    35    14    17    2
    36    16    34    1
    37    16    35    1
    38    16    36    1
    39    17    37    1
    40    17    38    1
