@<TRIPOS>MOLECULE
IMPHY005195
 52 56 0 0 0
SMALL
GASTEIGER

@<TRIPOS>ATOM
      1 O           6.4841    0.4055    0.0000 O.3     1  UNL1       -0.4754
      2 O           4.6258   -0.6865    0.0000 O.3     1  UNL1       -0.4732
      3 O           6.3821    2.4677    0.0000 O.2     1  UNL1       -0.4508
      4 O           8.2327   -0.6593    0.0000 O.3     1  UNL1       -0.3912
      5 O           2.8641    0.4226    0.0000 O.3     1  UNL1       -0.4913
      6 O           3.8449   -4.2357    0.0000 O.3     1  UNL1       -0.4914
      7 O           3.7840    3.9677    0.0000 O.2     1  UNL1       -0.2864
      8 O           5.5808   -5.2290    0.0000 O.3     1  UNL1       -0.5033
      9 C           5.5654   -1.2290    0.0000 C.3     1  UNL1        0.1643
     10 C           6.5008   -0.6793    0.0000 C.3     1  UNL1        0.1641
     11 C           5.5322    0.9262    0.0000 C.ar    1  UNL1        0.2093
     12 C           4.6341    0.3984    0.0000 C.ar    1  UNL1        0.2083
     13 C           5.5692   -2.2290    0.0000 C.ar    1  UNL1       -0.0000
     14 C           7.3726   -1.1693    0.0000 C.3     1  UNL1        0.0850
     15 C           5.5161    1.9677    0.0000 C.ar    1  UNL1        0.1846
     16 C           4.6501    2.4677    0.0000 C.ar    1  UNL1        0.0719
     17 C           3.7320    0.9192    0.0000 C.ar    1  UNL1        0.1661
     18 C           3.7401    1.9608    0.0000 C.ar    1  UNL1       -0.0017
     19 C           4.7052   -2.7324    0.0000 C.ar    1  UNL1       -0.0095
     20 C           6.4372   -2.7257    0.0000 C.ar    1  UNL1       -0.0513
     21 C           4.6501    3.4677    0.0000 C.ar    1  UNL1        0.2004
     22 C           5.5161    3.9677    0.0000 C.ar    1  UNL1        0.0646
     23 C           6.3821    3.4677    0.0000 C.ar    1  UNL1        0.1394
     24 C           4.7090   -3.7324    0.0000 C.ar    1  UNL1        0.1616
     25 C           6.4410   -3.7257    0.0000 C.ar    1  UNL1       -0.0161
     26 C           5.5770   -4.2290    0.0000 C.ar    1  UNL1        0.1585
     27 C           5.5000    5.0092    0.0000 C.ar    1  UNL1       -0.0474
     28 C           7.2921    3.9745    0.0000 C.ar    1  UNL1       -0.0186
     29 C           6.3981    5.5369    0.0000 C.ar    1  UNL1       -0.0609
     30 C           7.3002    5.0161    0.0000 C.ar    1  UNL1       -0.0582
     31 C           2.0000    0.9259    0.0000 C.3     1  UNL1        0.0790
     32 C           3.8488   -5.2357    0.0000 C.3     1  UNL1        0.0790
     33 H           6.1041   -1.5359    0.0000 H       1  UNL1        0.0823
     34 H           7.0335   -0.3621    0.0000 H       1  UNL1        0.0798
     35 H           6.9796   -1.6488    0.0000 H       1  UNL1        0.0595
     36 H           7.7766   -1.6396    0.0000 H       1  UNL1        0.0595
     37 H           3.2068    2.2770    0.0000 H       1  UNL1        0.0664
     38 H           4.1670   -2.4244    0.0000 H       1  UNL1        0.0659
     39 H           6.9729   -2.4136    0.0000 H       1  UNL1        0.0623
     40 H           6.9792   -4.0336    0.0000 H       1  UNL1        0.0655
     41 H           8.7732   -0.9631    0.0000 H       1  UNL1        0.2096
     42 H           4.9596    5.3130    0.0000 H       1  UNL1        0.0626
     43 H           7.8254    3.6583    0.0000 H       1  UNL1        0.0654
     44 H           6.3957    6.1569    0.0000 H       1  UNL1        0.0618
     45 H           7.8383    5.3240    0.0000 H       1  UNL1        0.0619
     46 H           2.3121    1.4616    0.0000 H       1  UNL1        0.0660
     47 H           1.4643    1.2380    0.0000 H       1  UNL1        0.0660
     48 H           1.6879    0.3902    0.0000 H       1  UNL1        0.0660
     49 H           6.1189   -5.5369    0.0000 H       1  UNL1        0.2923
     50 H           3.2288   -5.2381    0.0000 H       1  UNL1        0.0660
     51 H           3.8512   -5.8557    0.0000 H       1  UNL1        0.0660
     52 H           4.4688   -5.2333    0.0000 H       1  UNL1        0.0660
@<TRIPOS>BOND
     1     1    10    1
     2     1    11    1
     3     2     9    1
     4     2    12    1
     5     3    15   ar
     6     3    23   ar
     7     4    14    1
     8     4    41    1
     9     5    17    1
    10     5    31    1
    11     6    24    1
    12     6    32    1
    13     7    21    2
    14     8    26    1
    15     8    49    1
    16     9    10    1
    17     9    13    1
    18     9    33    1
    19    10    14    1
    20    10    34    1
    21    11    12   ar
    22    11    15   ar
    23    12    17   ar
    24    13    19   ar
    25    13    20   ar
    26    14    35    1
    27    14    36    1
    28    15    16   ar
    29    16    18   ar
    30    16    21   ar
    31    17    18   ar
    32    18    37    1
    33    19    24   ar
    34    19    38    1
    35    20    25   ar
    36    20    39    1
    37    21    22   ar
    38    22    23   ar
    39    22    27   ar
    40    23    28   ar
    41    24    26   ar
    42    25    26   ar
    43    25    40    1
    44    27    29   ar
    45    27    42    1
    46    28    30   ar
    47    28    43    1
    48    29    30   ar
    49    29    44    1
    50    30    45    1
    51    31    46    1
    52    31    47    1
    53    31    48    1
    54    32    50    1
    55    32    51    1
    56    32    52    1
