@<TRIPOS>MOLECULE
IMPHY013254
 18 18 0 0 0
SMALL
GASTEIGER

@<TRIPOS>ATOM
      1 O           4.2690   -1.5000    0.0000 O.2     1  UNL1       -0.4642
      2 O           2.5369   -1.5000    0.0000 O.3     1  UNL1       -0.3574
      3 O           6.0010    0.5000    0.0000 O.2     1  UNL1       -0.5012
      4 O           4.2690    1.5000    0.0000 O.2     1  UNL1       -0.2885
      5 C           3.4030    0.0000    0.0000 C.3     1  UNL1        0.0760
      6 C           3.4030   -1.0000    0.0000 C.3     1  UNL1        0.2061
      7 C           4.2690    0.5000    0.0000 C.2     1  UNL1        0.2063
      8 C           5.1350   -1.0000    0.0000 C.2     1  UNL1        0.1426
      9 C           5.1350    0.0000    0.0000 C.2     1  UNL1        0.1975
     10 C           6.0010   -1.5000    0.0000 C.3     1  UNL1       -0.0031
     11 H           3.1909    0.5826    0.0000 H       1  UNL1        0.0407
     12 H           2.7924   -0.1077    0.0000 H       1  UNL1        0.0407
     13 H           3.4030   -1.6200    0.0000 H       1  UNL1        0.1058
     14 H           5.6910   -2.0369    0.0000 H       1  UNL1        0.0309
     15 H           6.5380   -1.8100    0.0000 H       1  UNL1        0.0309
     16 H           6.3110   -0.9631    0.0000 H       1  UNL1        0.0309
     17 H           2.0000   -1.1900    0.0000 H       1  UNL1        0.2135
     18 H           6.5380    0.1900    0.0000 H       1  UNL1        0.2924
@<TRIPOS>BOND
     1     1     6    1
     2     1     8    1
     3     2     6    1
     4     2    17    1
     5     3     9    1
     6     3    18    1
     7     4     7    2
     8     5     6    1
     9     5     7    1
    10     5    11    1
    11     5    12    1
    12     6    13    1
    13     7     9    1
    14     8     9    2
    15     8    10    1
    16    10    14    1
    17    10    15    1
    18    10    16    1
