@<TRIPOS>MOLECULE
IMPHY000557
 119 118 0 0 0
SMALL
GASTEIGER

@<TRIPOS>ATOM
      1 O          14.9904    5.0000    0.0000 O.3     1  UNL1       -0.4544
      2 O          12.3923    4.5000    0.0000 O.3     1  UNL1       -0.4608
      3 O          13.2583    3.0000    0.0000 O.3     1  UNL1       -0.4608
      4 O          15.8564    3.5000    0.0000 O.2     1  UNL1       -0.2508
      5 O          11.5263    6.0000    0.0000 O.2     1  UNL1       -0.2509
      6 O          14.1244    1.5000    0.0000 O.2     1  UNL1       -0.2509
      7 C          20.1865    5.0000    0.0000 C.3     1  UNL1       -0.0531
      8 C          21.0526    4.5000    0.0000 C.3     1  UNL1       -0.0531
      9 C           7.1962    4.5000    0.0000 C.3     1  UNL1       -0.0531
     10 C          10.6603   -1.5000    0.0000 C.3     1  UNL1       -0.0531
     11 C           6.3301    5.0000    0.0000 C.3     1  UNL1       -0.0531
     12 C          10.6603   -2.5000    0.0000 C.3     1  UNL1       -0.0531
     13 C          19.3205    4.5000    0.0000 C.3     1  UNL1       -0.0530
     14 C          21.9186    5.0000    0.0000 C.3     1  UNL1       -0.0531
     15 C           8.0622    5.0000    0.0000 C.3     1  UNL1       -0.0530
     16 C          11.5263   -1.0000    0.0000 C.3     1  UNL1       -0.0530
     17 C           5.4641    4.5000    0.0000 C.3     1  UNL1       -0.0531
     18 C           9.7942   -3.0000    0.0000 C.3     1  UNL1       -0.0531
     19 C          18.4545    5.0000    0.0000 C.3     1  UNL1       -0.0526
     20 C          22.7846    4.5000    0.0000 C.3     1  UNL1       -0.0531
     21 C           8.9282    4.5000    0.0000 C.3     1  UNL1       -0.0526
     22 C          11.5263    0.0000    0.0000 C.3     1  UNL1       -0.0526
     23 C           4.5981    5.0000    0.0000 C.3     1  UNL1       -0.0531
     24 C           9.7942   -4.0000    0.0000 C.3     1  UNL1       -0.0531
     25 C          17.5885    4.5000    0.0000 C.3     1  UNL1       -0.0430
     26 C           9.7942    5.0000    0.0000 C.3     1  UNL1       -0.0430
     27 C          12.3923    0.5000    0.0000 C.3     1  UNL1       -0.0430
     28 C          23.6506    5.0000    0.0000 C.3     1  UNL1       -0.0533
     29 C           3.7320    4.5000    0.0000 C.3     1  UNL1       -0.0533
     30 C           8.9282   -4.5000    0.0000 C.3     1  UNL1       -0.0533
     31 C          16.7224    5.0000    0.0000 C.3     1  UNL1        0.0450
     32 C          10.6603    4.5000    0.0000 C.3     1  UNL1        0.0449
     33 C          12.3923    1.5000    0.0000 C.3     1  UNL1        0.0449
     34 C          24.5167    4.5000    0.0000 C.3     1  UNL1       -0.0559
     35 C           2.8660    5.0000    0.0000 C.3     1  UNL1       -0.0559
     36 C           8.9282   -5.5000    0.0000 C.3     1  UNL1       -0.0559
     37 C          14.1244    4.5000    0.0000 C.3     1  UNL1        0.1706
     38 C          15.8564    4.5000    0.0000 C.2     1  UNL1        0.3075
     39 C          13.2583    5.0000    0.0000 C.3     1  UNL1        0.1325
     40 C          14.1244    3.5000    0.0000 C.3     1  UNL1        0.1325
     41 C          11.5263    5.0000    0.0000 C.2     1  UNL1        0.3072
     42 C          13.2583    2.0000    0.0000 C.2     1  UNL1        0.3072
     43 C          25.3827    5.0000    0.0000 C.3     1  UNL1       -0.0653
     44 C           2.0000    4.5000    0.0000 C.3     1  UNL1       -0.0653
     45 C           8.0622   -6.0000    0.0000 C.3     1  UNL1       -0.0653
     46 H          20.5851    5.4750    0.0000 H       1  UNL1        0.0265
     47 H          19.7880    5.4750    0.0000 H       1  UNL1        0.0265
     48 H          20.6540    4.0250    0.0000 H       1  UNL1        0.0265
     49 H          21.4511    4.0250    0.0000 H       1  UNL1        0.0265
     50 H           6.7976    4.0250    0.0000 H       1  UNL1        0.0265
     51 H           7.5947    4.0250    0.0000 H       1  UNL1        0.0265
     52 H          10.4482   -0.9174    0.0000 H       1  UNL1        0.0265
     53 H          10.0497   -1.6077    0.0000 H       1  UNL1        0.0265
     54 H           6.7287    5.4750    0.0000 H       1  UNL1        0.0265
     55 H           5.9316    5.4750    0.0000 H       1  UNL1        0.0265
     56 H          10.8723   -3.0826    0.0000 H       1  UNL1        0.0265
     57 H          11.2708   -2.3923    0.0000 H       1  UNL1        0.0265
     58 H          18.9220    4.0250    0.0000 H       1  UNL1        0.0265
     59 H          19.7190    4.0250    0.0000 H       1  UNL1        0.0265
     60 H          22.3171    5.4750    0.0000 H       1  UNL1        0.0265
     61 H          21.5201    5.4750    0.0000 H       1  UNL1        0.0265
     62 H           8.4607    5.4750    0.0000 H       1  UNL1        0.0265
     63 H          11.7383   -1.5826    0.0000 H       1  UNL1        0.0265
     64 H          12.1369   -0.8923    0.0000 H       1  UNL1        0.0265
     65 H           7.6636    5.4750    0.0000 H       1  UNL1        0.0265
     66 H           5.0656    4.0250    0.0000 H       1  UNL1        0.0265
     67 H           5.8626    4.0250    0.0000 H       1  UNL1        0.0265
     68 H           9.5822   -2.4174    0.0000 H       1  UNL1        0.0265
     69 H           9.1836   -3.1077    0.0000 H       1  UNL1        0.0265
     70 H          18.8530    5.4750    0.0000 H       1  UNL1        0.0265
     71 H          18.0560    5.4750    0.0000 H       1  UNL1        0.0265
     72 H          22.3861    4.0250    0.0000 H       1  UNL1        0.0265
     73 H          23.1831    4.0250    0.0000 H       1  UNL1        0.0265
     74 H           8.5297    4.0250    0.0000 H       1  UNL1        0.0265
     75 H           9.3267    4.0250    0.0000 H       1  UNL1        0.0265
     76 H          11.3142    0.5826    0.0000 H       1  UNL1        0.0265
     77 H          10.9157   -0.1077    0.0000 H       1  UNL1        0.0265
     78 H           4.9966    5.4750    0.0000 H       1  UNL1        0.0265
     79 H           4.1996    5.4750    0.0000 H       1  UNL1        0.0265
     80 H          10.0063   -4.5826    0.0000 H       1  UNL1        0.0265
     81 H          10.4048   -3.8923    0.0000 H       1  UNL1        0.0265
     82 H          17.1899    4.0250    0.0000 H       1  UNL1        0.0270
     83 H          17.9870    4.0250    0.0000 H       1  UNL1        0.0270
     84 H          12.6044   -0.0826    0.0000 H       1  UNL1        0.0270
     85 H          10.1928    5.4750    0.0000 H       1  UNL1        0.0270
     86 H           9.3957    5.4750    0.0000 H       1  UNL1        0.0270
     87 H          13.0029    0.6077    0.0000 H       1  UNL1        0.0270
     88 H          24.0492    5.4750    0.0000 H       1  UNL1        0.0265
     89 H          23.2521    5.4750    0.0000 H       1  UNL1        0.0265
     90 H           8.7162   -3.9174    0.0000 H       1  UNL1        0.0265
     91 H           8.3176   -4.6077    0.0000 H       1  UNL1        0.0265
     92 H           3.3335    4.0250    0.0000 H       1  UNL1        0.0265
     93 H           4.1306    4.0250    0.0000 H       1  UNL1        0.0265
     94 H          17.1210    5.4750    0.0000 H       1  UNL1        0.0377
     95 H          16.3239    5.4750    0.0000 H       1  UNL1        0.0377
     96 H          10.2617    4.0250    0.0000 H       1  UNL1        0.0377
     97 H          11.0588    4.0250    0.0000 H       1  UNL1        0.0377
     98 H          12.1803    2.0826    0.0000 H       1  UNL1        0.0377
     99 H          11.7817    1.3923    0.0000 H       1  UNL1        0.0377
    100 H          24.1181    4.0250    0.0000 H       1  UNL1        0.0263
    101 H          24.9152    4.0250    0.0000 H       1  UNL1        0.0263
    102 H           9.1403   -6.0826    0.0000 H       1  UNL1        0.0263
    103 H           9.5388   -5.3923    0.0000 H       1  UNL1        0.0263
    104 H           3.2646    5.4750    0.0000 H       1  UNL1        0.0263
    105 H           2.4675    5.4750    0.0000 H       1  UNL1        0.0263
    106 H          14.1244    5.1200    0.0000 H       1  UNL1        0.0803
    107 H          14.3364    2.9174    0.0000 H       1  UNL1        0.0736
    108 H          14.7349    3.6077    0.0000 H       1  UNL1        0.0736
    109 H          13.6569    5.4750    0.0000 H       1  UNL1        0.0736
    110 H          12.8598    5.4750    0.0000 H       1  UNL1        0.0736
    111 H          25.6927    4.4631    0.0000 H       1  UNL1        0.0230
    112 H          25.9196    5.3100    0.0000 H       1  UNL1        0.0230
    113 H          25.0727    5.5369    0.0000 H       1  UNL1        0.0230
    114 H           1.6900    5.0369    0.0000 H       1  UNL1        0.0230
    115 H           1.4631    4.1900    0.0000 H       1  UNL1        0.0230
    116 H           2.3100    3.9631    0.0000 H       1  UNL1        0.0230
    117 H           7.7522   -5.4631    0.0000 H       1  UNL1        0.0230
    118 H           7.5252   -6.3100    0.0000 H       1  UNL1        0.0230
    119 H           8.3722   -6.5369    0.0000 H       1  UNL1        0.0230
@<TRIPOS>BOND
     1     1    37    1
     2     1    38    1
     3     2    39    1
     4     2    41    1
     5     3    40    1
     6     3    42    1
     7     4    38    2
     8     5    41    2
     9     6    42    2
    10     7     8    1
    11     7    13    1
    12     7    46    1
    13     7    47    1
    14     8    14    1
    15     8    48    1
    16     8    49    1
    17     9    11    1
    18     9    15    1
    19     9    50    1
    20     9    51    1
    21    10    12    1
    22    10    16    1
    23    10    52    1
    24    10    53    1
    25    11    17    1
    26    11    54    1
    27    11    55    1
    28    12    18    1
    29    12    56    1
    30    12    57    1
    31    13    19    1
    32    13    58    1
    33    13    59    1
    34    14    20    1
    35    14    60    1
    36    14    61    1
    37    15    21    1
    38    15    62    1
    39    15    65    1
    40    16    22    1
    41    16    63    1
    42    16    64    1
    43    17    23    1
    44    17    66    1
    45    17    67    1
    46    18    24    1
    47    18    68    1
    48    18    69    1
    49    19    25    1
    50    19    70    1
    51    19    71    1
    52    20    28    1
    53    20    72    1
    54    20    73    1
    55    21    26    1
    56    21    74    1
    57    21    75    1
    58    22    27    1
    59    22    76    1
    60    22    77    1
    61    23    29    1
    62    23    78    1
    63    23    79    1
    64    24    30    1
    65    24    80    1
    66    24    81    1
    67    25    31    1
    68    25    82    1
    69    25    83    1
    70    26    32    1
    71    26    85    1
    72    26    86    1
    73    27    33    1
    74    27    84    1
    75    27    87    1
    76    28    34    1
    77    28    88    1
    78    28    89    1
    79    29    35    1
    80    29    92    1
    81    29    93    1
    82    30    36    1
    83    30    90    1
    84    30    91    1
    85    31    38    1
    86    31    94    1
    87    31    95    1
    88    32    41    1
    89    32    96    1
    90    32    97    1
    91    33    42    1
    92    33    98    1
    93    33    99    1
    94    34    43    1
    95    34   100    1
    96    34   101    1
    97    35    44    1
    98    35   104    1
    99    35   105    1
   100    36    45    1
   101    36   102    1
   102    36   103    1
   103    37    39    1
   104    37    40    1
   105    37   106    1
   106    39   109    1
   107    39   110    1
   108    40   107    1
   109    40   108    1
   110    43   111    1
   111    43   112    1
   112    43   113    1
   113    44   114    1
   114    44   115    1
   115    44   116    1
   116    45   117    1
   117    45   118    1
   118    45   119    1
