@<TRIPOS>MOLECULE
IMPHY007763
 81 85 0 0 0
SMALL
GASTEIGER

@<TRIPOS>ATOM
      1 O           2.5357   -1.8922    0.0000 O.3     1  UNL1       -0.3912
      2 O           4.3500   -3.6701    0.0000 O.3     1  UNL1       -0.3944
      3 O          11.4608    1.1943    0.0000 O.3     1  UNL1       -0.3941
      4 C           7.0628   -0.3398    0.0000 C.3     1  UNL1       -0.0159
      5 C           5.2868   -0.3467    0.0000 C.3     1  UNL1       -0.0217
      6 C           6.1968    0.1601    0.0000 C.3     1  UNL1       -0.0107
      7 C           5.2787   -1.3883    0.0000 C.3     1  UNL1       -0.0252
      8 C           7.9288    0.1601    0.0000 C.3     1  UNL1       -0.0011
      9 C           7.0789   -1.3814    0.0000 C.3     1  UNL1       -0.0460
     10 C           4.3433   -1.9380    0.0000 C.3     1  UNL1        0.0203
     11 C           6.1808   -1.9091    0.0000 C.3     1  UNL1       -0.0485
     12 C           4.3599    0.2174    0.0000 C.3     1  UNL1       -0.0444
     13 C           7.9288    1.1602    0.0000 C.2     1  UNL1       -0.0413
     14 C           8.8228   -0.3745    0.0000 C.3     1  UNL1       -0.0422
     15 C           3.4037   -1.3955    0.0000 C.3     1  UNL1        0.0630
     16 C           9.7288    1.1810    0.0000 C.3     1  UNL1        0.0154
     17 C           7.7056   -1.1059    0.0000 C.3     1  UNL1       -0.0582
     18 C           6.1968    1.1602    0.0000 C.2     1  UNL1       -0.0796
     19 C           3.4120   -0.3106    0.0000 C.3     1  UNL1       -0.0257
     20 C           5.2945    0.6533    0.0000 C.3     1  UNL1       -0.0587
     21 C           8.8228    1.6948    0.0000 C.2     1  UNL1       -0.0570
     22 C           9.7288    0.1393    0.0000 C.3     1  UNL1       -0.0407
     23 C           8.2709   -0.7795    0.0000 C.3     1  UNL1       -0.0550
     24 C           7.0628    1.6602    0.0000 C.2     1  UNL1       -0.0617
     25 C           3.8467   -2.8060    0.0000 C.3     1  UNL1        0.0522
     26 C           4.8466   -2.8021    0.0000 C.3     1  UNL1       -0.0548
     27 C          10.6726    1.7162    0.0000 C.3     1  UNL1       -0.0411
     28 C           8.7977    2.7795    0.0000 C.3     1  UNL1       -0.0254
     29 C           9.7288    3.3364    0.0000 C.3     1  UNL1       -0.0311
     30 C          10.6726    2.8012    0.0000 C.3     1  UNL1       -0.0467
     31 C          10.5987    0.6877    0.0000 C.3     1  UNL1        0.0535
     32 C          10.2188    4.2082    0.0000 C.3     1  UNL1       -0.0595
     33 C           9.2188    4.1966    0.0000 C.3     1  UNL1       -0.0595
     34 H           6.9329    0.5851    0.0000 H       1  UNL1        0.0354
     35 H           5.2820   -2.2383    0.0000 H       1  UNL1        0.0313
     36 H           7.2969   -1.9618    0.0000 H       1  UNL1        0.0271
     37 H           7.6880   -1.2659    0.0000 H       1  UNL1        0.0271
     38 H           5.7835   -2.3851    0.0000 H       1  UNL1        0.0268
     39 H           6.5818   -2.3820    0.0000 H       1  UNL1        0.0268
     40 H           4.7681    0.6840    0.0000 H       1  UNL1        0.0272
     41 H           3.9700    0.6994    0.0000 H       1  UNL1        0.0272
     42 H           8.4182   -0.8443    0.0000 H       1  UNL1        0.0274
     43 H           9.2164   -0.8535    0.0000 H       1  UNL1        0.0274
     44 H           3.4025   -2.0155    0.0000 H       1  UNL1        0.0599
     45 H           7.2306   -1.5044    0.0000 H       1  UNL1        0.0236
     46 H           8.1041   -1.5808    0.0000 H       1  UNL1        0.0236
     47 H           8.1805   -0.7074    0.0000 H       1  UNL1        0.0236
     48 H           5.6598    1.4702    0.0000 H       1  UNL1        0.0575
     49 H           3.2075    0.2747    0.0000 H       1  UNL1        0.0290
     50 H           2.8004   -0.4119    0.0000 H       1  UNL1        0.0290
     51 H           5.9145    0.6485    0.0000 H       1  UNL1        0.0235
     52 H           5.2993    1.2733    0.0000 H       1  UNL1        0.0235
     53 H           4.6745    0.6581    0.0000 H       1  UNL1        0.0235
     54 H           9.9379   -0.4444    0.0000 H       1  UNL1        0.0275
     55 H          10.3397    0.2454    0.0000 H       1  UNL1        0.0275
     56 H           7.6884   -0.9916    0.0000 H       1  UNL1        0.0238
     57 H           8.4830   -1.3621    0.0000 H       1  UNL1        0.0238
     58 H           8.8535   -0.5674    0.0000 H       1  UNL1        0.0238
     59 H           7.0628    2.2802    0.0000 H       1  UNL1        0.0617
     60 H           3.3702   -2.4093    0.0000 H       1  UNL1        0.0563
     61 H           3.3732   -3.2063    0.0000 H       1  UNL1        0.0563
     62 H           4.3109   -3.1142    0.0000 H       1  UNL1        0.0237
     63 H           5.1587   -3.3378    0.0000 H       1  UNL1        0.0237
     64 H           5.3824   -2.4900    0.0000 H       1  UNL1        0.0237
     65 H          10.8817    1.1325    0.0000 H       1  UNL1        0.0275
     66 H          11.2835    1.8223    0.0000 H       1  UNL1        0.0275
     67 H           8.5752    3.3582    0.0000 H       1  UNL1        0.0316
     68 H           8.1894    2.6593    0.0000 H       1  UNL1        0.0316
     69 H          11.2835    2.6951    0.0000 H       1  UNL1        0.0271
     70 H          10.8817    3.3849    0.0000 H       1  UNL1        0.0271
     71 H          10.2038    0.2097    0.0000 H       1  UNL1        0.0566
     72 H          11.0009    0.2158    0.0000 H       1  UNL1        0.0566
     73 H           2.0000   -1.5801    0.0000 H       1  UNL1        0.2098
     74 H          10.7593    3.9044    0.0000 H       1  UNL1        0.0235
     75 H           9.7522    4.5128    0.0000 H       1  UNL1        0.0235
     76 H           8.9027    4.7299    0.0000 H       1  UNL1        0.0235
     77 H           8.6855    3.8804    0.0000 H       1  UNL1        0.0235
     78 H          10.5226    4.7487    0.0000 H       1  UNL1        0.0235
     79 H           9.6783    4.5120    0.0000 H       1  UNL1        0.0235
     80 H           4.0421   -4.2082    0.0000 H       1  UNL1        0.2094
     81 H          12.0001    0.8885    0.0000 H       1  UNL1        0.2094
@<TRIPOS>BOND
     1    15     1    1
     2     1    73    1
     3     2    25    1
     4     2    80    1
     5     3    31    1
     6     3    81    1
     7     4     6    1
     8     4     8    1
     9     4     9    1
    10     4    17    1
    11     5     6    1
    12     5     7    1
    13     5    12    1
    14     5    20    1
    15     6    18    1
    16     6    34    1
    17     7    10    1
    18     7    11    1
    19     7    35    1
    20     8    13    1
    21     8    14    1
    22     8    23    1
    23     9    11    1
    24     9    36    1
    25     9    37    1
    26    10    15    1
    27    10    25    1
    28    10    26    1
    29    11    38    1
    30    11    39    1
    31    12    19    1
    32    12    40    1
    33    12    41    1
    34    13    21    2
    35    13    24    1
    36    14    22    1
    37    14    42    1
    38    14    43    1
    39    15    19    1
    40    15    44    1
    41    16    21    1
    42    16    22    1
    43    16    27    1
    44    16    31    1
    45    17    45    1
    46    17    46    1
    47    17    47    1
    48    18    24    2
    49    18    48    1
    50    19    49    1
    51    19    50    1
    52    20    51    1
    53    20    52    1
    54    20    53    1
    55    21    28    1
    56    22    54    1
    57    22    55    1
    58    23    56    1
    59    23    57    1
    60    23    58    1
    61    24    59    1
    62    25    60    1
    63    25    61    1
    64    26    62    1
    65    26    63    1
    66    26    64    1
    67    27    30    1
    68    27    65    1
    69    27    66    1
    70    28    29    1
    71    28    67    1
    72    28    68    1
    73    29    30    1
    74    29    32    1
    75    29    33    1
    76    30    69    1
    77    30    70    1
    78    31    71    1
    79    31    72    1
    80    32    74    1
    81    32    78    1
    82    32    79    1
    83    33    75    1
    84    33    76    1
    85    33    77    1
