@<TRIPOS>MOLECULE
IMPHY013736
 58 60 0 0 0
SMALL
GASTEIGER

@<TRIPOS>ATOM
      1 CL          2.8000   -4.0068    0.0000 Cl      1  UNL1       -0.0835
      2 O           9.8602   -1.9585    0.0000 O.3     1  UNL1       -0.4951
      3 N           3.7320    2.5173    0.0000 N.3     1  UNL1       -0.3028
      4 N           6.3301   -0.9827    0.0000 N.pl3   1  UNL1       -0.3402
      5 N           6.3301   -3.9827    0.0000 N.ar    1  UNL1       -0.2465
      6 C           5.4641   -0.4827    0.0000 C.3     1  UNL1        0.0179
      7 C           5.4641    0.5173    0.0000 C.3     1  UNL1       -0.0337
      8 C           4.5981    1.0173    0.0000 C.3     1  UNL1       -0.0385
      9 C           4.5981    2.0173    0.0000 C.3     1  UNL1       -0.0011
     10 C           6.3301   -1.9827    0.0000 C.ar    1  UNL1        0.0460
     11 C           4.5981   -0.9827    0.0000 C.3     1  UNL1       -0.0467
     12 C           3.7320    3.5173    0.0000 C.3     1  UNL1       -0.0040
     13 C           2.8660    2.0173    0.0000 C.3     1  UNL1       -0.0040
     14 C           7.1962   -2.4827    0.0000 C.ar    1  UNL1        0.0253
     15 C           5.4641   -2.4827    0.0000 C.ar    1  UNL1        0.0219
     16 C           7.1962   -3.4827    0.0000 C.ar    1  UNL1        0.0737
     17 C           5.4641   -3.4827    0.0000 C.ar    1  UNL1        0.0748
     18 C           2.8660    4.0173    0.0000 C.3     1  UNL1       -0.0524
     19 C           2.0000    2.5173    0.0000 C.3     1  UNL1       -0.0524
     20 C           8.0901   -1.9480    0.0000 C.ar    1  UNL1       -0.0090
     21 C           4.5702   -1.9480    0.0000 C.ar    1  UNL1       -0.0494
     22 C           8.0901   -4.0173    0.0000 C.ar    1  UNL1       -0.0322
     23 C           4.5702   -4.0173    0.0000 C.ar    1  UNL1       -0.0173
     24 C           8.9962   -2.4618    0.0000 C.ar    1  UNL1        0.1208
     25 C           8.9962   -3.5035    0.0000 C.ar    1  UNL1       -0.0179
     26 C           3.6641   -2.4618    0.0000 C.ar    1  UNL1       -0.0426
     27 C           3.6641   -3.5035    0.0000 C.ar    1  UNL1        0.0430
     28 C          10.7282   -2.4552    0.0000 C.3     1  UNL1        0.0788
     29 H           5.4641   -1.1027    0.0000 H       1  UNL1        0.0495
     30 H           6.0747    0.4097    0.0000 H       1  UNL1        0.0283
     31 H           5.6762    1.0999    0.0000 H       1  UNL1        0.0283
     32 H           3.9875    1.1250    0.0000 H       1  UNL1        0.0278
     33 H           4.3860    0.4347    0.0000 H       1  UNL1        0.0278
     34 H           5.2087    1.9097    0.0000 H       1  UNL1        0.0426
     35 H           4.8101    2.5999    0.0000 H       1  UNL1        0.0426
     36 H           6.8671   -0.6727    0.0000 H       1  UNL1        0.1464
     37 H           4.2881   -0.4457    0.0000 H       1  UNL1        0.0247
     38 H           4.0611   -1.2927    0.0000 H       1  UNL1        0.0247
     39 H           4.9081   -1.5196    0.0000 H       1  UNL1        0.0247
     40 H           4.3426    3.4097    0.0000 H       1  UNL1        0.0424
     41 H           3.9441    4.0999    0.0000 H       1  UNL1        0.0424
     42 H           2.4675    1.5424    0.0000 H       1  UNL1        0.0424
     43 H           3.2646    1.5424    0.0000 H       1  UNL1        0.0424
     44 H           3.1760    4.5543    0.0000 H       1  UNL1        0.0242
     45 H           2.3291    4.3273    0.0000 H       1  UNL1        0.0242
     46 H           2.5560    3.4804    0.0000 H       1  UNL1        0.0242
     47 H           2.3100    3.0543    0.0000 H       1  UNL1        0.0242
     48 H           1.4631    2.8273    0.0000 H       1  UNL1        0.0242
     49 H           1.6900    1.9804    0.0000 H       1  UNL1        0.0242
     50 H           8.0829   -1.3280    0.0000 H       1  UNL1        0.0661
     51 H           4.5773   -1.3280    0.0000 H       1  UNL1        0.0625
     52 H           8.0829   -4.6373    0.0000 H       1  UNL1        0.0640
     53 H           4.5773   -4.6373    0.0000 H       1  UNL1        0.0653
     54 H           9.5319   -3.8156    0.0000 H       1  UNL1        0.0655
     55 H           3.1284   -2.1498    0.0000 H       1  UNL1        0.0632
     56 H          10.4203   -2.9933    0.0000 H       1  UNL1        0.0660
     57 H          11.2663   -2.7631    0.0000 H       1  UNL1        0.0660
     58 H          11.0361   -1.9170    0.0000 H       1  UNL1        0.0660
@<TRIPOS>BOND
     1     1    27    1
     2     2    24    1
     3     2    28    1
     4     3     9    1
     5     3    12    1
     6     3    13    1
     7     4     6    1
     8     4    10    1
     9     4    36    1
    10     5    16   ar
    11     5    17   ar
    12     6     7    1
    13     6    11    1
    14     6    29    1
    15     7     8    1
    16     7    30    1
    17     7    31    1
    18     8     9    1
    19     8    32    1
    20     8    33    1
    21     9    34    1
    22     9    35    1
    23    10    14   ar
    24    10    15   ar
    25    11    37    1
    26    11    38    1
    27    11    39    1
    28    12    18    1
    29    12    40    1
    30    12    41    1
    31    13    19    1
    32    13    42    1
    33    13    43    1
    34    14    16   ar
    35    14    20   ar
    36    15    17   ar
    37    15    21   ar
    38    16    22   ar
    39    17    23   ar
    40    18    44    1
    41    18    45    1
    42    18    46    1
    43    19    47    1
    44    19    48    1
    45    19    49    1
    46    20    24   ar
    47    20    50    1
    48    21    26   ar
    49    21    51    1
    50    22    25   ar
    51    22    52    1
    52    23    27   ar
    53    23    53    1
    54    24    25   ar
    55    25    54    1
    56    26    27   ar
    57    26    55    1
    58    28    56    1
    59    28    57    1
    60    28    58    1
