@<TRIPOS>MOLECULE
IMPHY001108
 45 47 0 0 0
SMALL
GASTEIGER

@<TRIPOS>ATOM
      1 O           6.3580   -0.6126    0.0000 O.2     1  UNL1       -0.4470
      2 O           4.5981   -1.5779    0.0000 O.3     1  UNL1       -0.4884
      3 O           8.1282    1.4462    0.0000 O.3     1  UNL1       -0.4883
      4 O           2.8660   -0.5779    0.0000 O.3     1  UNL1       -0.4883
      5 O           2.8660    1.4221    0.0000 O.3     1  UNL1       -0.4884
      6 O           4.5981    2.4221    0.0000 O.3     1  UNL1       -0.5027
      7 O           6.3465    2.4567    0.0000 O.2     1  UNL1       -0.2830
      8 O          10.7205   -2.1121    0.0000 O.3     1  UNL1       -0.5068
      9 C           5.4641    0.9221    0.0000 C.ar    1  UNL1        0.1165
     10 C           5.4641   -0.0779    0.0000 C.ar    1  UNL1        0.1884
     11 C           4.5981   -0.5779    0.0000 C.ar    1  UNL1        0.2088
     12 C           7.2641   -0.0987    0.0000 C.ar    1  UNL1        0.1810
     13 C           4.5981    1.4221    0.0000 C.ar    1  UNL1        0.1772
     14 C           6.3580    1.4567    0.0000 C.ar    1  UNL1        0.2383
     15 C           7.2641    0.9429    0.0000 C.ar    1  UNL1        0.2107
     16 C           3.7320   -0.0779    0.0000 C.ar    1  UNL1        0.2110
     17 C           3.7320    0.9221    0.0000 C.ar    1  UNL1        0.2080
     18 C           8.1282   -0.6021    0.0000 C.ar    1  UNL1        0.0213
     19 C           8.1244   -1.6021    0.0000 C.ar    1  UNL1       -0.0475
     20 C           8.9962   -0.1054    0.0000 C.ar    1  UNL1       -0.0475
     21 C           8.9884   -2.1054    0.0000 C.ar    1  UNL1       -0.0195
     22 C           9.8602   -0.6088    0.0000 C.ar    1  UNL1       -0.0195
     23 C           9.8564   -1.6087    0.0000 C.ar    1  UNL1        0.1169
     24 C           3.7320   -2.0779    0.0000 C.3     1  UNL1        0.0791
     25 C           8.1244    2.4462    0.0000 C.3     1  UNL1        0.0791
     26 C           2.0000   -0.0779    0.0000 C.3     1  UNL1        0.0791
     27 C           2.0000    0.9221    0.0000 C.3     1  UNL1        0.0791
     28 H           7.5862   -1.9100    0.0000 H       1  UNL1        0.0626
     29 H           8.9985    0.5146    0.0000 H       1  UNL1        0.0626
     30 H           4.0611    2.7321    0.0000 H       1  UNL1        0.2923
     31 H           8.9860   -2.7254    0.0000 H       1  UNL1        0.0654
     32 H          10.3984   -0.3008    0.0000 H       1  UNL1        0.0654
     33 H           3.4220   -1.5410    0.0000 H       1  UNL1        0.0660
     34 H           3.1951   -2.3879    0.0000 H       1  UNL1        0.0660
     35 H           4.0420   -2.6149    0.0000 H       1  UNL1        0.0660
     36 H           8.7443    2.4486    0.0000 H       1  UNL1        0.0660
     37 H           8.1220    3.0662    0.0000 H       1  UNL1        0.0660
     38 H           7.5044    2.4438    0.0000 H       1  UNL1        0.0660
     39 H           2.3100    0.4590    0.0000 H       1  UNL1        0.0660
     40 H           1.4631    0.2321    0.0000 H       1  UNL1        0.0660
     41 H           1.6900   -0.6149    0.0000 H       1  UNL1        0.0660
     42 H           1.6900    1.4590    0.0000 H       1  UNL1        0.0660
     43 H           1.4631    0.6121    0.0000 H       1  UNL1        0.0660
     44 H           2.3100    0.3851    0.0000 H       1  UNL1        0.0660
     45 H          10.7181   -2.7321    0.0000 H       1  UNL1        0.2921
@<TRIPOS>BOND
     1     1    10   ar
     2     1    12   ar
     3     2    11    1
     4     2    24    1
     5     3    15    1
     6     3    25    1
     7     4    16    1
     8     4    26    1
     9     5    17    1
    10     5    27    1
    11     6    13    1
    12     6    30    1
    13     7    14    2
    14     8    23    1
    15     8    45    1
    16     9    10   ar
    17     9    13   ar
    18     9    14   ar
    19    10    11   ar
    20    11    16   ar
    21    12    15   ar
    22    12    18    1
    23    13    17   ar
    24    14    15   ar
    25    16    17   ar
    26    18    19   ar
    27    18    20   ar
    28    19    21   ar
    29    19    28    1
    30    20    22   ar
    31    20    29    1
    32    21    23   ar
    33    21    31    1
    34    22    23   ar
    35    22    32    1
    36    24    33    1
    37    24    34    1
    38    24    35    1
    39    25    36    1
    40    25    37    1
    41    25    38    1
    42    26    39    1
    43    26    40    1
    44    26    41    1
    45    27    42    1
    46    27    43    1
    47    27    44    1
