@<TRIPOS>MOLECULE
IMPHY009453
 31 31 0 0 0
SMALL
GASTEIGER

@<TRIPOS>ATOM
      1 O           4.0000    1.7990    0.0000 O.3     1  UNL1       -0.4804
      2 O           5.5000    2.6651    0.0000 O.2     1  UNL1       -0.2507
      3 O           2.5000   -1.7990    0.0000 O.3     1  UNL1       -0.4647
      4 O           4.0000   -2.6651    0.0000 O.2     1  UNL1       -0.2453
      5 C           6.3660    0.4330    0.0000 C.3     1  UNL1       -0.0144
      6 C           5.5000   -0.0670    0.0000 C.3     1  UNL1       -0.0028
      7 C           5.5000    0.9330    0.0000 C.3     1  UNL1        0.0687
      8 C           6.8660   -0.4330    0.0000 C.3     1  UNL1       -0.0585
      9 C           6.8660    1.2990    0.0000 C.3     1  UNL1       -0.0585
     10 C           5.0000   -0.9330    0.0000 C.2     1  UNL1       -0.0699
     11 C           5.0000    1.7990    0.0000 C.2     1  UNL1        0.3089
     12 C           4.0000   -0.9330    0.0000 C.2     1  UNL1        0.0299
     13 C           3.5000   -0.0670    0.0000 C.3     1  UNL1       -0.0332
     14 C           3.5000   -1.7990    0.0000 C.2     1  UNL1        0.3343
     15 C           2.0000   -2.6651    0.0000 C.3     1  UNL1        0.0820
     16 H           4.9011    0.0935    0.0000 H       1  UNL1        0.0357
     17 H           5.9384    1.3714    0.0000 H       1  UNL1        0.0425
     18 H           6.3291   -0.7430    0.0000 H       1  UNL1        0.0235
     19 H           7.1760   -0.9699    0.0000 H       1  UNL1        0.0235
     20 H           7.4030   -0.1230    0.0000 H       1  UNL1        0.0235
     21 H           7.4030    0.9890    0.0000 H       1  UNL1        0.0235
     22 H           7.1760    1.8360    0.0000 H       1  UNL1        0.0235
     23 H           6.3291    1.6090    0.0000 H       1  UNL1        0.0235
     24 H           5.3100   -1.4700    0.0000 H       1  UNL1        0.0580
     25 H           3.6900    2.3360    0.0000 H       1  UNL1        0.2951
     26 H           4.0369    0.2430    0.0000 H       1  UNL1        0.0280
     27 H           3.1900    0.4699    0.0000 H       1  UNL1        0.0280
     28 H           2.9631   -0.3770    0.0000 H       1  UNL1        0.0280
     29 H           1.4631   -2.3551    0.0000 H       1  UNL1        0.0661
     30 H           1.6900   -3.2020    0.0000 H       1  UNL1        0.0661
     31 H           2.5369   -2.9751    0.0000 H       1  UNL1        0.0661
@<TRIPOS>BOND
     1     1    11    1
     2     1    25    1
     3     2    11    2
     4     3    14    1
     5     3    15    1
     6     4    14    2
     7     5     6    1
     8     5     7    1
     9     5     8    1
    10     5     9    1
    11     6     7    1
    12     6    10    1
    13     6    16    1
    14     7    11    1
    15     7    17    1
    16     8    18    1
    17     8    19    1
    18     8    20    1
    19     9    21    1
    20     9    22    1
    21     9    23    1
    22    10    12    2
    23    10    24    1
    24    12    13    1
    25    12    14    1
    26    13    26    1
    27    13    27    1
    28    13    28    1
    29    15    29    1
    30    15    30    1
    31    15    31    1
