@<TRIPOS>MOLECULE
IMPHY006738
 43 47 0 0 0
SMALL
GASTEIGER

@<TRIPOS>ATOM
      1 O           4.8574    1.5206    0.0000 O.3     1  UNL1       -0.3530
      2 O           6.4984   -1.5571    0.0000 O.2     1  UNL1       -0.2885
      3 O           7.9767   -0.3917    0.0000 O.2     1  UNL1       -0.3003
      4 O           2.9744    0.4775    0.0000 O.2     1  UNL1       -0.2869
      5 O           2.0024   -3.1837    0.0000 O.3     1  UNL1       -0.5067
      6 C           6.4767    1.4743    0.0000 C.3     1  UNL1       -0.0168
      7 C           5.6106    1.9743    0.0000 C.3     1  UNL1        0.0106
      8 C           5.8198    2.9462    0.0000 C.3     1  UNL1        0.0750
      9 C           6.4767    0.4743    0.0000 C.3     1  UNL1        0.0670
     10 C           5.6106   -0.0257    0.0000 C.3     1  UNL1        0.1722
     11 C           7.2137    2.1414    0.0000 C.3     1  UNL1       -0.0460
     12 C           6.8086    3.0492    0.0000 C.3     1  UNL1       -0.0231
     13 C           4.7446    0.4743    0.0000 C.2     1  UNL1        0.0364
     14 C           4.7446    1.4743    0.0000 C.2     1  UNL1       -0.0679
     15 C           5.3054    3.8037    0.0000 C.3     1  UNL1       -0.0352
     16 C           6.9767   -0.3917    0.0000 C.3     1  UNL1       -0.0494
     17 C           5.6267   -1.0672    0.0000 C.2     1  UNL1        0.2009
     18 C           7.4767    0.4743    0.0000 C.2     1  UNL1        0.1300
     19 C           3.8346   -0.0325    0.0000 C.2     1  UNL1        0.1929
     20 C           4.7287   -1.5949    0.0000 C.ar    1  UNL1        0.0317
     21 C           3.8266   -1.0741    0.0000 C.ar    1  UNL1        0.0360
     22 C           4.7454   -2.6798    0.0000 C.ar    1  UNL1       -0.0470
     23 C           2.8787   -1.6020    0.0000 C.ar    1  UNL1       -0.0087
     24 C           3.8100   -3.2295    0.0000 C.ar    1  UNL1       -0.0195
     25 C           2.8703   -2.6870    0.0000 C.ar    1  UNL1        0.1176
     26 H           7.0434    1.2229    0.0000 H       1  UNL1        0.0318
     27 H           5.1095    2.3394    0.0000 H       1  UNL1        0.0374
     28 H           7.5791    1.6406    0.0000 H       1  UNL1        0.0269
     29 H           7.7502    2.4522    0.0000 H       1  UNL1        0.0269
     30 H           7.3982    3.2410    0.0000 H       1  UNL1        0.0293
     31 H           6.6798    3.6557    0.0000 H       1  UNL1        0.0293
     32 H           4.2077    1.7843    0.0000 H       1  UNL1        0.0581
     33 H           5.8370    4.1226    0.0000 H       1  UNL1        0.0257
     34 H           4.9864    4.3353    0.0000 H       1  UNL1        0.0257
     35 H           4.7737    3.4847    0.0000 H       1  UNL1        0.0257
     36 H           6.4397   -0.7017    0.0000 H       1  UNL1        0.0240
     37 H           7.2867   -0.9286    0.0000 H       1  UNL1        0.0240
     38 H           7.5136   -0.0817    0.0000 H       1  UNL1        0.0240
     39 H           7.7867    1.0113    0.0000 H       1  UNL1        0.1033
     40 H           5.2859   -2.9836    0.0000 H       1  UNL1        0.0626
     41 H           2.3454   -1.2859    0.0000 H       1  UNL1        0.0661
     42 H           3.8124   -3.8495    0.0000 H       1  UNL1        0.0654
     43 H           2.0000   -3.8037    0.0000 H       1  UNL1        0.2921
@<TRIPOS>BOND
     1     1     8    1
     2     1    10    1
     3     2    17    2
     4     3    18    2
     5     4    19    2
     6     5    25    1
     7     5    43    1
     8     6     7    1
     9     6     9    1
    10     6    11    1
    11     6    26    1
    12     7     8    1
    13     7    14    1
    14     7    27    1
    15     8    12    1
    16     8    15    1
    17     9    10    1
    18     9    16    1
    19     9    18    1
    20    10    13    1
    21    10    17    1
    22    11    12    1
    23    11    28    1
    24    11    29    1
    25    12    30    1
    26    12    31    1
    27    13    14    2
    28    13    19    1
    29    14    32    1
    30    15    33    1
    31    15    34    1
    32    15    35    1
    33    16    36    1
    34    16    37    1
    35    16    38    1
    36    17    20    1
    37    18    39    1
    38    19    21    1
    39    20    21   ar
    40    20    22   ar
    41    21    23   ar
    42    22    24   ar
    43    22    40    1
    44    23    25   ar
    45    23    41    1
    46    24    25   ar
    47    24    42    1
