@<TRIPOS>MOLECULE
IMPHY011241
 73 77 0 0 0
SMALL
GASTEIGER

@<TRIPOS>ATOM
      1 O           7.7331    0.4700    0.0000 O.3     1  UNL1       -0.3313
      2 O           4.2690   -0.5300    0.0000 O.3     1  UNL1       -0.3405
      3 O           6.0010   -0.5300    0.0000 O.3     1  UNL1       -0.3460
      4 O           6.0010    2.4700    0.0000 O.3     1  UNL1       -0.3865
      5 O           7.7331    3.4700    0.0000 O.3     1  UNL1       -0.3864
      6 O           9.4651    0.4700    0.0000 O.3     1  UNL1       -0.4606
      7 O           6.0010   -2.5300    0.0000 O.3     1  UNL1       -0.3841
      8 O           4.2690   -3.5300    0.0000 O.3     1  UNL1       -0.3864
      9 O           2.5369   -2.5300    0.0000 O.3     1  UNL1       -0.3865
     10 O           9.4651    2.4700    0.0000 O.3     1  UNL1       -0.3829
     11 O           2.5369    0.4700    0.0000 O.3     1  UNL1       -0.3924
     12 O          12.9953    0.4805    0.0000 O.2     1  UNL1       -0.4544
     13 O          11.2586    3.5218    0.0000 O.3     1  UNL1       -0.5058
     14 O          13.0069    3.4805    0.0000 O.2     1  UNL1       -0.2869
     15 O          15.5838   -2.0295    0.0000 O.3     1  UNL1       -0.5033
     16 O          17.3196   -1.0362    0.0000 O.3     1  UNL1       -0.5033
     17 C           6.8671    0.9700    0.0000 C.3     1  UNL1        0.1144
     18 C           6.8671    1.9700    0.0000 C.3     1  UNL1        0.1120
     19 C           7.7331    2.4700    0.0000 C.3     1  UNL1        0.1152
     20 C           5.1350   -2.0300    0.0000 C.3     1  UNL1        0.1341
     21 C           4.2690   -2.5300    0.0000 C.3     1  UNL1        0.1141
     22 C           5.1350   -1.0300    0.0000 C.3     1  UNL1        0.1880
     23 C           3.4030   -2.0300    0.0000 C.3     1  UNL1        0.1119
     24 C           8.5991    1.9700    0.0000 C.3     1  UNL1        0.1454
     25 C           3.4030   -1.0300    0.0000 C.3     1  UNL1        0.1130
     26 C           6.0010    0.4700    0.0000 C.3     1  UNL1        0.0796
     27 C           8.5991    0.9700    0.0000 C.3     1  UNL1        0.2308
     28 C           2.5369   -0.5300    0.0000 C.3     1  UNL1        0.0730
     29 C          10.3312    0.9700    0.0000 C.ar    1  UNL1        0.1310
     30 C          11.2352    0.4526    0.0000 C.ar    1  UNL1        0.0235
     31 C          10.3352    2.0116    0.0000 C.ar    1  UNL1        0.0226
     32 C          12.1312    0.9838    0.0000 C.ar    1  UNL1        0.1462
     33 C          11.2432    2.5219    0.0000 C.ar    1  UNL1        0.1347
     34 C          12.1351    1.9838    0.0000 C.ar    1  UNL1        0.1055
     35 C          13.0030    2.4805    0.0000 C.ar    1  UNL1        0.1966
     36 C          13.8633    0.9772    0.0000 C.ar    1  UNL1        0.1393
     37 C          13.8671    1.9772    0.0000 C.ar    1  UNL1        0.0288
     38 C          14.7274    0.4738    0.0000 C.ar    1  UNL1        0.0211
     39 C          14.7235   -0.5262    0.0000 C.ar    1  UNL1       -0.0059
     40 C          15.5953    0.9705    0.0000 C.ar    1  UNL1       -0.0474
     41 C          15.5876   -1.0295    0.0000 C.ar    1  UNL1        0.1589
     42 C          16.4594    0.4671    0.0000 C.ar    1  UNL1       -0.0159
     43 C          16.4556   -0.5329    0.0000 C.ar    1  UNL1        0.1583
     44 H           6.8671    0.3500    0.0000 H       1  UNL1        0.0647
     45 H           6.3301    1.6600    0.0000 H       1  UNL1        0.0647
     46 H           7.1962    2.7800    0.0000 H       1  UNL1        0.0648
     47 H           5.1350   -2.6500    0.0000 H       1  UNL1        0.0671
     48 H           3.7320   -2.8401    0.0000 H       1  UNL1        0.0648
     49 H           5.6720   -1.3400    0.0000 H       1  UNL1        0.0937
     50 H           2.8660   -1.7200    0.0000 H       1  UNL1        0.0647
     51 H           8.5991    2.5900    0.0000 H       1  UNL1        0.0683
     52 H           3.4030   -0.4100    0.0000 H       1  UNL1        0.0647
     53 H           5.7890    1.0526    0.0000 H       1  UNL1        0.0587
     54 H           5.3905    0.3623    0.0000 H       1  UNL1        0.0587
     55 H           8.5991    0.3500    0.0000 H       1  UNL1        0.1084
     56 H           1.9264   -0.4224    0.0000 H       1  UNL1        0.0584
     57 H           2.3249   -1.1127    0.0000 H       1  UNL1        0.0584
     58 H           5.4641    2.1599    0.0000 H       1  UNL1        0.2100
     59 H           7.1962    3.7800    0.0000 H       1  UNL1        0.2100
     60 H           6.5380   -2.2200    0.0000 H       1  UNL1        0.2101
     61 H           3.7320   -3.8400    0.0000 H       1  UNL1        0.2100
     62 H           2.0000   -2.2200    0.0000 H       1  UNL1        0.2100
     63 H           9.4651    3.0900    0.0000 H       1  UNL1        0.2102
     64 H           2.0000    0.7800    0.0000 H       1  UNL1        0.2095
     65 H          11.2400   -0.1674    0.0000 H       1  UNL1        0.0691
     66 H           9.8006    2.3257    0.0000 H       1  UNL1        0.0691
     67 H          14.4053    2.2851    0.0000 H       1  UNL1        0.0693
     68 H          10.7265    3.8400    0.0000 H       1  UNL1        0.2922
     69 H          14.1854   -0.8341    0.0000 H       1  UNL1        0.0662
     70 H          15.5977    1.5905    0.0000 H       1  UNL1        0.0626
     71 H          16.9975    0.7751    0.0000 H       1  UNL1        0.0655
     72 H          16.1195   -2.3416    0.0000 H       1  UNL1        0.2923
     73 H          17.8578   -0.7283    0.0000 H       1  UNL1        0.2923
@<TRIPOS>BOND
     1     1    17    1
     2     1    27    1
     3     2    22    1
     4     2    25    1
     5    22     3    1
     6     3    26    1
     7    18     4    1
     8     4    58    1
     9    19     5    1
    10     5    59    1
    11    27     6    1
    12     6    29    1
    13     7    20    1
    14     7    60    1
    15    21     8    1
    16     8    61    1
    17    23     9    1
    18     9    62    1
    19    10    24    1
    20    10    63    1
    21    11    28    1
    22    11    64    1
    23    12    32   ar
    24    12    36   ar
    25    13    33    1
    26    13    68    1
    27    14    35    2
    28    15    41    1
    29    15    72    1
    30    16    43    1
    31    16    73    1
    32    17    18    1
    33    17    26    1
    34    17    44    1
    35    18    19    1
    36    18    45    1
    37    19    24    1
    38    19    46    1
    39    20    21    1
    40    20    22    1
    41    20    47    1
    42    21    23    1
    43    21    48    1
    44    22    49    1
    45    23    25    1
    46    23    50    1
    47    24    27    1
    48    24    51    1
    49    25    28    1
    50    25    52    1
    51    26    53    1
    52    26    54    1
    53    27    55    1
    54    28    56    1
    55    28    57    1
    56    29    30   ar
    57    29    31   ar
    58    30    32   ar
    59    30    65    1
    60    31    33   ar
    61    31    66    1
    62    32    34   ar
    63    33    34   ar
    64    34    35   ar
    65    35    37   ar
    66    36    37   ar
    67    36    38    1
    68    37    67    1
    69    38    39   ar
    70    38    40   ar
    71    39    41   ar
    72    39    69    1
    73    40    42   ar
    74    40    70    1
    75    41    43   ar
    76    42    43   ar
    77    42    71    1
