@<TRIPOS>MOLECULE
IMPHY005063
 72 76 0 0 0
SMALL
GASTEIGER

@<TRIPOS>ATOM
      1 O           5.0372    1.9187    0.0000 O.3     1  UNL1       -0.4516
      2 O           7.7604    2.9945    0.0000 O.3     1  UNL1       -0.3846
      3 O           6.0630   -2.4145    0.0000 O.3     1  UNL1       -0.4872
      4 O           2.2027   -0.2599    0.0000 O.3     1  UNL1       -0.3773
      5 O           8.1313   -3.2455    0.0000 O.3     1  UNL1       -0.4489
      6 O           9.6801   -2.6040    0.0000 O.3     1  UNL1       -0.4525
      7 O           6.2259   -1.9153    0.0000 O.3     1  UNL1       -0.4907
      8 O           3.0413    1.9204    0.0000 O.2     1  UNL1       -0.2476
      9 O           3.6092    0.7063    0.0000 O.3     1  UNL1       -0.4913
     10 O           4.6722   -1.8598    0.0000 O.3     1  UNL1       -0.4885
     11 C           7.3778    2.0706    0.0000 C.3     1  UNL1        0.1070
     12 C           8.3016    1.6879    0.0000 C.3     1  UNL1       -0.0074
     13 C           6.4539    1.6879    0.0000 C.3     1  UNL1        0.1574
     14 C           8.6843    0.7641    0.0000 C.3     1  UNL1       -0.0216
     15 C           6.0712    0.7641    0.0000 C.ar    1  UNL1        0.0105
     16 C           8.3016   -0.1598    0.0000 C.ar    1  UNL1       -0.0320
     17 C           6.9951    2.9945    0.0000 C.3     1  UNL1       -0.0320
     18 C           7.3778   -0.5425    0.0000 C.ar    1  UNL1        0.0349
     19 C           6.4539   -0.1598    0.0000 C.ar    1  UNL1        0.0383
     20 C           9.0087    2.3950    0.0000 C.3     1  UNL1       -0.0594
     21 C           3.1846   -0.0704    0.0000 C.3     1  UNL1        0.1648
     22 C           3.5152   -1.4672    0.0000 C.3     1  UNL1        0.0294
     23 C           7.2259   -1.5730    0.0000 C.ar    1  UNL1        0.1738
     24 C           9.1377   -0.7811    0.0000 C.ar    1  UNL1       -0.0121
     25 C           5.0407    0.9159    0.0000 C.ar    1  UNL1       -0.0087
     26 C           3.7730    1.2388    0.0000 C.2     1  UNL1        0.3399
     27 C           5.8326   -0.9959    0.0000 C.ar    1  UNL1        0.1733
     28 C           4.6282   -2.3735    0.0000 C.3     1  UNL1        0.0955
     29 C           8.0474   -2.2135    0.0000 C.ar    1  UNL1        0.2082
     30 C           9.0097   -1.8148    0.0000 C.ar    1  UNL1        0.1702
     31 C           4.4002    0.0945    0.0000 C.ar    1  UNL1        0.1656
     32 C           4.7988   -0.8679    0.0000 C.ar    1  UNL1        0.2041
     33 C           2.4391    0.5962    0.0000 C.3     1  UNL1       -0.0252
     34 C           2.6679   -1.9983    0.0000 C.3     1  UNL1       -0.0562
     35 C           9.1383   -3.4864    0.0000 C.3     1  UNL1        0.2334
     36 C           5.3871   -2.7020    0.0000 C.3     1  UNL1        0.0790
     37 C           4.4601    1.4799    0.0000 C.3     1  UNL1        0.0790
     38 C           3.7497   -2.2460    0.0000 C.3     1  UNL1        0.0791
     39 H           8.9097    1.5670    0.0000 H       1  UNL1        0.0330
     40 H           6.7792    2.4732    0.0000 H       1  UNL1        0.0815
     41 H           9.1762    0.3866    0.0000 H       1  UNL1        0.0317
     42 H           9.1762    1.1415    0.0000 H       1  UNL1        0.0317
     43 H           7.5679    3.2318    0.0000 H       1  UNL1        0.0259
     44 H           6.7578    3.5673    0.0000 H       1  UNL1        0.0259
     45 H           6.4223    2.7572    0.0000 H       1  UNL1        0.0259
     46 H           9.4472    1.9566    0.0000 H       1  UNL1        0.0233
     47 H           9.4472    2.8334    0.0000 H       1  UNL1        0.0233
     48 H           8.5703    2.8334    0.0000 H       1  UNL1        0.0233
     49 H           3.4770   -2.0860    0.0000 H       1  UNL1        0.0364
     50 H           7.3830    3.4864    0.0000 H       1  UNL1        0.2103
     51 H           9.7077   -0.5372    0.0000 H       1  UNL1        0.0658
     52 H           4.8101    1.4914    0.0000 H       1  UNL1        0.0659
     53 H           4.1103   -2.7144    0.0000 H       1  UNL1        0.0700
     54 H           4.7976   -2.9699    0.0000 H       1  UNL1        0.0700
     55 H           2.8524    1.0584    0.0000 H       1  UNL1        0.0263
     56 H           1.9770    1.0095    0.0000 H       1  UNL1        0.0263
     57 H           2.0258    0.1341    0.0000 H       1  UNL1        0.0263
     58 H           2.3386   -1.4730    0.0000 H       1  UNL1        0.0234
     59 H           2.1426   -2.3276    0.0000 H       1  UNL1        0.0234
     60 H           2.9972   -2.5236    0.0000 H       1  UNL1        0.0234
     61 H           2.0000   -0.8458    0.0000 H       1  UNL1        0.2109
     62 H           8.9316   -4.0709    0.0000 H       1  UNL1        0.1166
     63 H           9.6979   -3.7534    0.0000 H       1  UNL1        0.1166
     64 H           4.9630   -2.2498    0.0000 H       1  UNL1        0.0660
     65 H           4.9349   -3.1261    0.0000 H       1  UNL1        0.0660
     66 H           5.8112   -3.1542    0.0000 H       1  UNL1        0.0660
     67 H           4.8772    1.0212    0.0000 H       1  UNL1        0.0660
     68 H           4.9188    1.8970    0.0000 H       1  UNL1        0.0660
     69 H           4.0430    1.9386    0.0000 H       1  UNL1        0.0660
     70 H           3.5103   -1.6741    0.0000 H       1  UNL1        0.0660
     71 H           3.1778   -2.4855    0.0000 H       1  UNL1        0.0660
     72 H           3.9892   -2.8179    0.0000 H       1  UNL1        0.0660
@<TRIPOS>BOND
     1     1    13    1
     2     1    26    1
     3    11     2    1
     4     2    50    1
     5     3    23    1
     6     3    28    1
     7    21     4    1
     8     4    61    1
     9     5    29    1
    10     5    35    1
    11     6    30    1
    12     6    35    1
    13     7    27    1
    14     7    36    1
    15     8    26    2
    16     9    31    1
    17     9    37    1
    18    10    32    1
    19    10    38    1
    20    11    12    1
    21    11    13    1
    22    11    17    1
    23    12    14    1
    24    12    20    1
    25    12    39    1
    26    13    15    1
    27    13    40    1
    28    14    16    1
    29    14    41    1
    30    14    42    1
    31    15    19   ar
    32    15    25   ar
    33    16    18   ar
    34    16    24   ar
    35    17    43    1
    36    17    44    1
    37    17    45    1
    38    18    19    1
    39    18    23   ar
    40    19    27   ar
    41    20    46    1
    42    20    47    1
    43    20    48    1
    44    21    22    1
    45    21    26    1
    46    21    33    1
    47    22    28    1
    48    22    34    1
    49    22    49    1
    50    23    29   ar
    51    24    30   ar
    52    24    51    1
    53    25    31   ar
    54    25    52    1
    55    27    32   ar
    56    28    53    1
    57    28    54    1
    58    29    30   ar
    59    31    32   ar
    60    33    55    1
    61    33    56    1
    62    33    57    1
    63    34    58    1
    64    34    59    1
    65    34    60    1
    66    35    62    1
    67    35    63    1
    68    36    64    1
    69    36    65    1
    70    36    66    1
    71    37    67    1
    72    37    68    1
    73    37    69    1
    74    38    70    1
    75    38    71    1
    76    38    72    1
