@<TRIPOS>MOLECULE
IMPHY016786
 59 58 0 0 0
SMALL
GASTEIGER

@<TRIPOS>ATOM
      1 O          12.9292   -0.2500    0.0000 O.3     1  UNL1       -0.3752
      2 O          15.5273    0.2500    0.0000 O.3     1  UNL1       -0.3752
      3 O          10.3312    0.2500    0.0000 O.3     1  UNL1       -0.3752
      4 O          18.1254   -0.2500    0.0000 O.3     1  UNL1       -0.3752
      5 O           7.7331   -0.2500    0.0000 O.3     1  UNL1       -0.3752
      6 O          20.7235    0.2500    0.0000 O.3     1  UNL1       -0.3752
      7 O           5.1350    0.2500    0.0000 O.3     1  UNL1       -0.3752
      8 O          23.3215   -0.2500    0.0000 O.3     1  UNL1       -0.3927
      9 O           2.5369   -0.2500    0.0000 O.3     1  UNL1       -0.3927
     10 C          13.7953    0.2500    0.0000 C.3     1  UNL1        0.0711
     11 C          12.0632    0.2500    0.0000 C.3     1  UNL1        0.0711
     12 C          14.6613   -0.2500    0.0000 C.3     1  UNL1        0.0711
     13 C          11.1972   -0.2500    0.0000 C.3     1  UNL1        0.0711
     14 C          16.3933   -0.2500    0.0000 C.3     1  UNL1        0.0711
     15 C           9.4651   -0.2500    0.0000 C.3     1  UNL1        0.0711
     16 C          17.2594    0.2500    0.0000 C.3     1  UNL1        0.0711
     17 C           8.5991    0.2500    0.0000 C.3     1  UNL1        0.0711
     18 C          18.9914    0.2500    0.0000 C.3     1  UNL1        0.0711
     19 C           6.8671    0.2500    0.0000 C.3     1  UNL1        0.0711
     20 C          19.8574   -0.2500    0.0000 C.3     1  UNL1        0.0711
     21 C           6.0010   -0.2500    0.0000 C.3     1  UNL1        0.0711
     22 C          21.5895   -0.2500    0.0000 C.3     1  UNL1        0.0708
     23 C           4.2690   -0.2500    0.0000 C.3     1  UNL1        0.0708
     24 C          22.4555    0.2500    0.0000 C.3     1  UNL1        0.0676
     25 C           3.4030    0.2500    0.0000 C.3     1  UNL1        0.0676
     26 H          14.1938    0.7249    0.0000 H       1  UNL1        0.0583
     27 H          13.3967    0.7249    0.0000 H       1  UNL1        0.0583
     28 H          12.4617    0.7249    0.0000 H       1  UNL1        0.0583
     29 H          11.6647    0.7249    0.0000 H       1  UNL1        0.0583
     30 H          14.2628   -0.7249    0.0000 H       1  UNL1        0.0583
     31 H          15.0598   -0.7249    0.0000 H       1  UNL1        0.0583
     32 H          10.7987   -0.7249    0.0000 H       1  UNL1        0.0583
     33 H          11.5957   -0.7249    0.0000 H       1  UNL1        0.0583
     34 H          15.9948   -0.7249    0.0000 H       1  UNL1        0.0583
     35 H          16.7919   -0.7249    0.0000 H       1  UNL1        0.0583
     36 H           9.0666   -0.7249    0.0000 H       1  UNL1        0.0583
     37 H           9.8637   -0.7249    0.0000 H       1  UNL1        0.0583
     38 H          17.6579    0.7249    0.0000 H       1  UNL1        0.0583
     39 H          16.8608    0.7249    0.0000 H       1  UNL1        0.0583
     40 H           8.9976    0.7249    0.0000 H       1  UNL1        0.0583
     41 H           8.2006    0.7249    0.0000 H       1  UNL1        0.0583
     42 H          19.3899    0.7249    0.0000 H       1  UNL1        0.0583
     43 H          18.5929    0.7249    0.0000 H       1  UNL1        0.0583
     44 H           7.2656    0.7249    0.0000 H       1  UNL1        0.0583
     45 H           6.4685    0.7249    0.0000 H       1  UNL1        0.0583
     46 H          19.4589   -0.7249    0.0000 H       1  UNL1        0.0583
     47 H          20.2560   -0.7249    0.0000 H       1  UNL1        0.0583
     48 H           5.6025   -0.7249    0.0000 H       1  UNL1        0.0583
     49 H           6.3996   -0.7249    0.0000 H       1  UNL1        0.0583
     50 H          21.1910   -0.7249    0.0000 H       1  UNL1        0.0583
     51 H          21.9880   -0.7249    0.0000 H       1  UNL1        0.0583
     52 H           3.8705   -0.7249    0.0000 H       1  UNL1        0.0583
     53 H           4.6675   -0.7249    0.0000 H       1  UNL1        0.0583
     54 H          22.8540    0.7249    0.0000 H       1  UNL1        0.0580
     55 H          22.0570    0.7249    0.0000 H       1  UNL1        0.0580
     56 H           3.8015    0.7249    0.0000 H       1  UNL1        0.0580
     57 H           3.0044    0.7249    0.0000 H       1  UNL1        0.0580
     58 H          23.8585    0.0600    0.0000 H       1  UNL1        0.2095
     59 H           2.0000    0.0600    0.0000 H       1  UNL1        0.2095
@<TRIPOS>BOND
     1     1    10    1
     2     1    11    1
     3     2    12    1
     4     2    14    1
     5     3    13    1
     6     3    15    1
     7     4    16    1
     8     4    18    1
     9     5    17    1
    10     5    19    1
    11     6    20    1
    12     6    22    1
    13     7    21    1
    14     7    23    1
    15     8    24    1
    16     8    58    1
    17     9    25    1
    18     9    59    1
    19    10    12    1
    20    10    26    1
    21    10    27    1
    22    11    13    1
    23    11    28    1
    24    11    29    1
    25    12    30    1
    26    12    31    1
    27    13    32    1
    28    13    33    1
    29    14    16    1
    30    14    34    1
    31    14    35    1
    32    15    17    1
    33    15    36    1
    34    15    37    1
    35    16    38    1
    36    16    39    1
    37    17    40    1
    38    17    41    1
    39    18    20    1
    40    18    42    1
    41    18    43    1
    42    19    21    1
    43    19    44    1
    44    19    45    1
    45    20    46    1
    46    20    47    1
    47    21    48    1
    48    21    49    1
    49    22    24    1
    50    22    50    1
    51    22    51    1
    52    23    25    1
    53    23    52    1
    54    23    53    1
    55    24    54    1
    56    24    55    1
    57    25    56    1
    58    25    57    1
