@<TRIPOS>MOLECULE
IMPHY009076
 53 57 0 0 0
SMALL
GASTEIGER

@<TRIPOS>ATOM
      1 O           7.2645    1.9384    0.0000 O.3     1  UNL1       -0.5029
      2 O           2.8641    2.4489    0.0000 O.3     1  UNL1       -0.4914
      3 O           9.0462    0.9279    0.0000 O.3     1  UNL1       -0.4914
      4 O           4.6380    3.4730    0.0000 O.3     1  UNL1       -0.5033
      5 N           3.7320   -2.1447    0.0000 N.3     1  UNL1       -0.2946
      6 C           4.6341   -2.6655    0.0000 C.3     1  UNL1        0.0173
      7 C           5.5322   -2.1377    0.0000 C.3     1  UNL1       -0.0022
      8 C           4.4162   -3.6778    0.0000 C.3     1  UNL1       -0.0356
      9 C           2.9643   -2.8395    0.0000 C.3     1  UNL1       -0.0004
     10 C           3.3863   -3.7851    0.0000 C.3     1  UNL1       -0.0387
     11 C           3.7401   -1.1031    0.0000 C.3     1  UNL1        0.0252
     12 C           5.5161   -1.0962    0.0000 C.ar    1  UNL1       -0.0302
     13 C           4.6501   -0.5962    0.0000 C.ar    1  UNL1       -0.0215
     14 C           6.4039   -2.6277    0.0000 C.3     1  UNL1       -0.0569
     15 C           6.3821   -0.5962    0.0000 C.ar    1  UNL1       -0.0098
     16 C           4.6501    0.4038    0.0000 C.ar    1  UNL1       -0.0088
     17 C           6.3821    0.4038    0.0000 C.ar    1  UNL1        0.0353
     18 C           5.5161    0.9038    0.0000 C.ar    1  UNL1       -0.0026
     19 C           7.2761   -1.1309    0.0000 C.ar    1  UNL1       -0.0500
     20 C           3.7401    0.9106    0.0000 C.ar    1  UNL1       -0.0083
     21 C           7.2761    0.9384    0.0000 C.ar    1  UNL1        0.1669
     22 C           5.5322    1.9453    0.0000 C.ar    1  UNL1       -0.0081
     23 C           8.1821   -0.6170    0.0000 C.ar    1  UNL1       -0.0157
     24 C           3.7320    1.9522    0.0000 C.ar    1  UNL1        0.1619
     25 C           8.1821    0.4246    0.0000 C.ar    1  UNL1        0.1619
     26 C           4.6341    2.4730    0.0000 C.ar    1  UNL1        0.1591
     27 C           2.0000    1.9456    0.0000 C.3     1  UNL1        0.0790
     28 C           9.9142    0.4313    0.0000 C.3     1  UNL1        0.0790
     29 H           5.1366   -3.0286    0.0000 H       1  UNL1        0.0468
     30 H           6.0649   -1.8205    0.0000 H       1  UNL1        0.0362
     31 H           4.4153   -4.2978    0.0000 H       1  UNL1        0.0281
     32 H           5.0327   -3.7438    0.0000 H       1  UNL1        0.0281
     33 H           2.5989   -2.3387    0.0000 H       1  UNL1        0.0427
     34 H           2.4278   -3.1503    0.0000 H       1  UNL1        0.0427
     35 H           2.7967   -3.9769    0.0000 H       1  UNL1        0.0278
     36 H           3.5150   -4.3916    0.0000 H       1  UNL1        0.0278
     37 H           3.5355   -0.5178    0.0000 H       1  UNL1        0.0476
     38 H           3.1284   -1.2044    0.0000 H       1  UNL1        0.0476
     39 H           6.1001   -3.1682    0.0000 H       1  UNL1        0.0236
     40 H           6.9444   -2.9314    0.0000 H       1  UNL1        0.0236
     41 H           6.7077   -2.0872    0.0000 H       1  UNL1        0.0236
     42 H           7.2689   -1.7508    0.0000 H       1  UNL1        0.0625
     43 H           3.2068    0.5944    0.0000 H       1  UNL1        0.0661
     44 H           6.0726    2.2491    0.0000 H       1  UNL1        0.0661
     45 H           8.7179   -0.9291    0.0000 H       1  UNL1        0.0655
     46 H           7.7978    2.2546    0.0000 H       1  UNL1        0.2923
     47 H           4.1022    3.7851    0.0000 H       1  UNL1        0.2923
     48 H           1.6879    2.4813    0.0000 H       1  UNL1        0.0660
     49 H           1.4643    1.6335    0.0000 H       1  UNL1        0.0660
     50 H           2.3121    1.4098    0.0000 H       1  UNL1        0.0660
     51 H           9.6062   -0.1069    0.0000 H       1  UNL1        0.0660
     52 H          10.4523    0.1233    0.0000 H       1  UNL1        0.0660
     53 H          10.2221    0.9694    0.0000 H       1  UNL1        0.0660
@<TRIPOS>BOND
     1     1    21    1
     2     1    46    1
     3     2    24    1
     4     2    27    1
     5     3    25    1
     6     3    28    1
     7     4    26    1
     8     4    47    1
     9     5     6    1
    10     5     9    1
    11     5    11    1
    12     6     7    1
    13     6     8    1
    14     6    29    1
    15     7    12    1
    16     7    14    1
    17     7    30    1
    18     8    10    1
    19     8    31    1
    20     8    32    1
    21     9    10    1
    22     9    33    1
    23     9    34    1
    24    10    35    1
    25    10    36    1
    26    11    13    1
    27    11    37    1
    28    11    38    1
    29    12    13   ar
    30    12    15   ar
    31    13    16   ar
    32    14    39    1
    33    14    40    1
    34    14    41    1
    35    15    17   ar
    36    15    19   ar
    37    16    18   ar
    38    16    20   ar
    39    17    18   ar
    40    17    21   ar
    41    18    22   ar
    42    19    23   ar
    43    19    42    1
    44    20    24   ar
    45    20    43    1
    46    21    25   ar
    47    22    26   ar
    48    22    44    1
    49    23    25   ar
    50    23    45    1
    51    24    26   ar
    52    27    48    1
    53    27    49    1
    54    27    50    1
    55    28    51    1
    56    28    52    1
    57    28    53    1
