@<TRIPOS>MOLECULE
IMPHY000833
 70 75 0 0 0
SMALL
GASTEIGER

@<TRIPOS>ATOM
      1 O           6.0682    1.6759    0.0000 O.3     1  UNL1       -0.4811
      2 O           9.2053   -1.3306    0.0000 O.3     1  UNL1       -0.4811
      3 O           7.8003    3.6759    0.0000 O.3     1  UNL1       -0.3875
      4 O           7.1523   -2.9995    0.0000 O.3     1  UNL1       -0.3875
      5 O           9.1664   -0.6901    0.0000 O.3     1  UNL1       -0.5028
      6 O           5.8307    1.0232    0.0000 O.3     1  UNL1       -0.5028
      7 O           4.3198    4.7105    0.0000 O.3     1  UNL1       -0.5063
      8 O          10.4002   -4.6227    0.0000 O.3     1  UNL1       -0.5063
      9 O           5.2291   -2.3883    0.0000 O.3     1  UNL1       -0.5032
     10 O          10.3984    2.1759    0.0000 O.3     1  UNL1       -0.5032
     11 O          10.3984    0.1759    0.0000 O.3     1  UNL1       -0.5009
     12 O           4.5451   -0.5088    0.0000 O.3     1  UNL1       -0.5009
     13 O           2.5381    1.6518    0.0000 O.3     1  UNL1       -0.5065
     14 O          12.6860   -1.9198    0.0000 O.3     1  UNL1       -0.5065
     15 C           6.9343    2.1759    0.0000 C.3     1  UNL1        0.1519
     16 C           8.2657   -1.6726    0.0000 C.3     1  UNL1        0.1519
     17 C           6.9343    3.1759    0.0000 C.3     1  UNL1        0.1004
     18 C           8.0920   -2.6574    0.0000 C.3     1  UNL1        0.1004
     19 C           7.8003    1.6759    0.0000 C.ar    1  UNL1        0.0101
     20 C           7.4996   -1.0298    0.0000 C.ar    1  UNL1        0.0101
     21 C           8.8580   -3.3002    0.0000 C.3     1  UNL1        0.0092
     22 C           6.0682    3.6759    0.0000 C.3     1  UNL1        0.0092
     23 C           7.8003    0.6759    0.0000 C.ar    1  UNL1        0.0382
     24 C           7.1575   -0.0901    0.0000 C.ar    1  UNL1        0.0382
     25 C           5.2022    3.1759    0.0000 C.ar    1  UNL1        0.0384
     26 C           9.7977   -2.9582    0.0000 C.ar    1  UNL1        0.0384
     27 C           5.2022    2.1759    0.0000 C.ar    1  UNL1        0.1317
     28 C           9.9713   -1.9734    0.0000 C.ar    1  UNL1        0.1317
     29 C           8.6663    2.1759    0.0000 C.ar    1  UNL1       -0.0089
     30 C           6.8568   -1.7959    0.0000 C.ar    1  UNL1       -0.0089
     31 C           6.1727    0.0836    0.0000 C.ar    1  UNL1        0.1703
     32 C           8.6663    0.1759    0.0000 C.ar    1  UNL1        0.1703
     33 C           4.3083    3.7106    0.0000 C.ar    1  UNL1        0.1270
     34 C          10.5852   -3.6400    0.0000 C.ar    1  UNL1        0.1270
     35 C           9.5323    1.6759    0.0000 C.ar    1  UNL1        0.1624
     36 C           5.8719   -1.6222    0.0000 C.ar    1  UNL1        0.1624
     37 C           9.5323    0.6759    0.0000 C.ar    1  UNL1        0.2012
     38 C           5.5299   -0.6825    0.0000 C.ar    1  UNL1        0.2012
     39 C           4.3083    1.6412    0.0000 C.ar    1  UNL1        0.0221
     40 C          10.9445   -1.6021    0.0000 C.ar    1  UNL1        0.0221
     41 C           3.4022    3.1967    0.0000 C.ar    1  UNL1        0.0218
     42 C          11.5667   -3.2912    0.0000 C.ar    1  UNL1        0.0218
     43 C           3.4022    2.1551    0.0000 C.ar    1  UNL1        0.1238
     44 C          11.7476   -2.2654    0.0000 C.ar    1  UNL1        0.1238
     45 H           8.4132   -0.8355    0.0000 H       1  UNL1        0.0811
     46 H           7.6704    2.6009    0.0000 H       1  UNL1        0.0811
     47 H           7.6171   -2.2589    0.0000 H       1  UNL1        0.0637
     48 H           6.9343    3.7959    0.0000 H       1  UNL1        0.0637
     49 H           6.4668    4.1508    0.0000 H       1  UNL1        0.0342
     50 H           5.6697    4.1508    0.0000 H       1  UNL1        0.0342
     51 H           8.3830   -3.6987    0.0000 H       1  UNL1        0.0342
     52 H           9.1680   -3.8371    0.0000 H       1  UNL1        0.0342
     53 H           8.6663    2.7959    0.0000 H       1  UNL1        0.0659
     54 H           7.0688   -2.3785    0.0000 H       1  UNL1        0.0659
     55 H           7.0447   -3.6100    0.0000 H       1  UNL1        0.2100
     56 H           7.8003    4.2959    0.0000 H       1  UNL1        0.2100
     57 H           4.3154    1.0213    0.0000 H       1  UNL1        0.0691
     58 H          11.0451   -0.9903    0.0000 H       1  UNL1        0.0691
     59 H           2.8665    3.5088    0.0000 H       1  UNL1        0.0691
     60 H          12.0401   -3.6916    0.0000 H       1  UNL1        0.0691
     61 H           9.7863   -0.6901    0.0000 H       1  UNL1        0.2923
     62 H           5.2201    1.1309    0.0000 H       1  UNL1        0.2923
     63 H           3.7865    5.0267    0.0000 H       1  UNL1        0.2921
     64 H          10.8705   -5.0267    0.0000 H       1  UNL1        0.2921
     65 H          10.3984    2.7959    0.0000 H       1  UNL1        0.2923
     66 H           5.4412   -2.9709    0.0000 H       1  UNL1        0.2923
     67 H          10.9353    0.4859    0.0000 H       1  UNL1        0.2924
     68 H           4.1466   -0.9838    0.0000 H       1  UNL1        0.2924
     69 H          13.1624   -2.3165    0.0000 H       1  UNL1        0.2921
     70 H           2.0000    1.9597    0.0000 H       1  UNL1        0.2921
@<TRIPOS>BOND
     1     1    15    1
     2     1    27    1
     3     2    16    1
     4     2    28    1
     5    17     3    1
     6     3    56    1
     7    18     4    1
     8     4    55    1
     9     5    32    1
    10     5    61    1
    11     6    31    1
    12     6    62    1
    13     7    33    1
    14     7    63    1
    15     8    34    1
    16     8    64    1
    17     9    36    1
    18     9    66    1
    19    10    35    1
    20    10    65    1
    21    11    37    1
    22    11    67    1
    23    12    38    1
    24    12    68    1
    25    13    43    1
    26    13    70    1
    27    14    44    1
    28    14    69    1
    29    15    17    1
    30    15    19    1
    31    15    46    1
    32    16    18    1
    33    16    20    1
    34    16    45    1
    35    17    22    1
    36    17    48    1
    37    18    21    1
    38    18    47    1
    39    19    23   ar
    40    19    29   ar
    41    20    24   ar
    42    20    30   ar
    43    21    26    1
    44    21    51    1
    45    21    52    1
    46    22    25    1
    47    22    49    1
    48    22    50    1
    49    23    24    1
    50    23    32   ar
    51    24    31   ar
    52    25    27   ar
    53    25    33   ar
    54    26    28   ar
    55    26    34   ar
    56    27    39   ar
    57    28    40   ar
    58    29    35   ar
    59    29    53    1
    60    30    36   ar
    61    30    54    1
    62    31    38   ar
    63    32    37   ar
    64    33    41   ar
    65    34    42   ar
    66    35    37   ar
    67    36    38   ar
    68    39    43   ar
    69    39    57    1
    70    40    44   ar
    71    40    58    1
    72    41    43   ar
    73    41    59    1
    74    42    44   ar
    75    42    60    1
