@<TRIPOS>MOLECULE
IMPHY007908
 38 38 0 0 0
SMALL
GASTEIGER

@<TRIPOS>ATOM
      1 O           2.8090   -2.5829    0.0000 O.2     1  UNL1       -0.4708
      2 C           7.0614    1.1739    0.0000 C.3     1  UNL1       -0.0286
      3 C           6.4736    0.3649    0.0000 C.2     1  UNL1       -0.0762
      4 C           4.8913   -0.3396    0.0000 C.3     1  UNL1       -0.0304
      5 C           8.0559    1.0694    0.0000 C.3     1  UNL1       -0.0308
      6 C           3.8968   -0.2350    0.0000 C.3     1  UNL1       -0.0213
      7 C           5.4791    0.4694    0.0000 C.2     1  UNL1       -0.0847
      8 C           3.3090   -1.0441    0.0000 C.ar    1  UNL1       -0.0094
      9 C           6.8804   -0.5486    0.0000 C.3     1  UNL1       -0.0438
     10 C           8.6437    1.8784    0.0000 C.2     1  UNL1       -0.0850
     11 C           9.6382    1.7739    0.0000 C.2     1  UNL1       -0.0796
     12 C           2.3090   -1.0441    0.0000 C.ar    1  UNL1       -0.0207
     13 C           3.6180   -1.9951    0.0000 C.ar    1  UNL1        0.0948
     14 C          10.2260    2.5829    0.0000 C.3     1  UNL1       -0.0440
     15 C          10.0450    0.8603    0.0000 C.3     1  UNL1       -0.0440
     16 C           2.0000   -1.9951    0.0000 C.ar    1  UNL1        0.0919
     17 H           7.2323    1.7699    0.0000 H       1  UNL1        0.0313
     18 H           6.5042    1.4457    0.0000 H       1  UNL1        0.0313
     19 H           4.7204   -0.9356    0.0000 H       1  UNL1        0.0311
     20 H           5.4486   -0.6114    0.0000 H       1  UNL1        0.0311
     21 H           7.8850    0.4734    0.0000 H       1  UNL1        0.0310
     22 H           8.6132    0.7976    0.0000 H       1  UNL1        0.0310
     23 H           4.0677    0.3609    0.0000 H       1  UNL1        0.0317
     24 H           3.3396    0.0367    0.0000 H       1  UNL1        0.0317
     25 H           5.2269    1.0358    0.0000 H       1  UNL1        0.0572
     26 H           6.3140   -0.8008    0.0000 H       1  UNL1        0.0274
     27 H           7.1325   -1.1150    0.0000 H       1  UNL1        0.0274
     28 H           7.4468   -0.2965    0.0000 H       1  UNL1        0.0274
     29 H           8.3916    2.4448    0.0000 H       1  UNL1        0.0572
     30 H           1.9446   -0.5425    0.0000 H       1  UNL1        0.0652
     31 H           4.2077   -2.1867    0.0000 H       1  UNL1        0.1032
     32 H           9.4786    0.6082    0.0000 H       1  UNL1        0.0274
     33 H          10.2972    0.2939    0.0000 H       1  UNL1        0.0274
     34 H          10.6114    1.1125    0.0000 H       1  UNL1        0.0274
     35 H          10.7276    2.2185    0.0000 H       1  UNL1        0.0274
     36 H          10.5905    3.0845    0.0000 H       1  UNL1        0.0274
     37 H           9.7244    2.9473    0.0000 H       1  UNL1        0.0274
     38 H           1.4103   -2.1867    0.0000 H       1  UNL1        0.1029
@<TRIPOS>BOND
     1     1    13   ar
     2     1    16   ar
     3     2     3    1
     4     2     5    1
     5     2    17    1
     6     2    18    1
     7     3     7    2
     8     3     9    1
     9     4     6    1
    10     4     7    1
    11     4    19    1
    12     4    20    1
    13     5    10    1
    14     5    21    1
    15     5    22    1
    16     6     8    1
    17     6    23    1
    18     6    24    1
    19     7    25    1
    20     8    12   ar
    21     8    13   ar
    22     9    26    1
    23     9    27    1
    24     9    28    1
    25    10    11    2
    26    10    29    1
    27    11    14    1
    28    11    15    1
    29    12    16   ar
    30    12    30    1
    31    13    31    1
    32    14    35    1
    33    14    36    1
    34    14    37    1
    35    15    32    1
    36    15    33    1
    37    15    34    1
    38    16    38    1
