@<TRIPOS>MOLECULE
IMPHY009105
 182 191 0 0 0
SMALL
GASTEIGER

@<TRIPOS>ATOM
      1 O           6.8671   -8.4175    0.0000 O.3     1  UNL1       -0.3423
      2 O           9.6611   -1.3390    0.0000 O.3     1  UNL1       -0.3906
      3 O           5.0597   -7.3647    0.0000 O.3     1  UNL1       -0.3892
      4 O           9.3112   -7.7258    0.0000 O.3     1  UNL1       -0.3944
      5 O           9.5042   -0.6279    0.0000 O.3     1  UNL1       -0.4318
      6 O           8.6209    0.8619    0.0000 O.2     1  UNL1       -0.2500
      7 O           5.1350   -8.4175    0.0000 O.3     1  UNL1       -0.3405
      8 O          11.2361   -0.6079    0.0000 O.3     1  UNL1       -0.3338
      9 O           6.8671  -10.4175    0.0000 O.3     1  UNL1       -0.3841
     10 O           5.1350  -11.4175    0.0000 O.3     1  UNL1       -0.3864
     11 O           9.4810    1.3719    0.0000 O.3     1  UNL1       -0.3366
     12 O           3.4030  -10.4175    0.0000 O.3     1  UNL1       -0.3865
     13 O          11.2014    2.3919    0.0000 O.3     1  UNL1       -0.3863
     14 O           2.5369   -8.9175    0.0000 O.3     1  UNL1       -0.3924
     15 O          12.9449    1.4120    0.0000 O.3     1  UNL1       -0.3866
     16 O          10.3297    2.8818    0.0000 O.3     1  UNL1       -0.3431
     17 O           7.7376    2.3518    0.0000 O.3     1  UNL1       -0.3841
     18 O           7.7144    4.3517    0.0000 O.3     1  UNL1       -0.3864
     19 O           9.4348    5.3716    0.0000 O.3     1  UNL1       -0.3402
     20 O          11.1667    5.3917    0.0000 O.3     1  UNL1       -0.3461
     21 O           9.4117    7.3715    0.0000 O.3     1  UNL1       -0.3841
     22 O          11.1320    8.3915    0.0000 O.3     1  UNL1       -0.3401
     23 O          12.8755    7.4116    0.0000 O.3     1  UNL1       -0.3868
     24 O          12.8640    8.4115    0.0000 O.3     1  UNL1       -0.3431
     25 O          11.1089   10.3913    0.0000 O.3     1  UNL1       -0.3841
     26 O          12.8293   11.4113    0.0000 O.3     1  UNL1       -0.3864
     27 O          14.5728   10.4314    0.0000 O.3     1  UNL1       -0.3866
     28 C           7.7681   -3.7173    0.0000 C.3     1  UNL1       -0.0193
     29 C           6.8920   -5.2622    0.0000 C.3     1  UNL1       -0.0225
     30 C           6.9040   -4.2206    0.0000 C.3     1  UNL1       -0.0257
     31 C           7.7643   -2.7173    0.0000 C.3     1  UNL1       -0.0028
     32 C           7.7920   -5.7865    0.0000 C.3     1  UNL1       -0.0253
     33 C           8.6801   -4.2206    0.0000 C.3     1  UNL1       -0.0463
     34 C           7.8046   -6.8714    0.0000 C.3     1  UNL1        0.0231
     35 C           8.6921   -5.2622    0.0000 C.3     1  UNL1       -0.0485
     36 C           6.8963   -2.2206    0.0000 C.2     1  UNL1       -0.0627
     37 C           5.9421   -5.7865    0.0000 C.3     1  UNL1       -0.0184
     38 C           6.8762   -1.1792    0.0000 C.3     1  UNL1       -0.0007
     39 C           6.0361   -3.7240    0.0000 C.3     1  UNL1       -0.0306
     40 C           8.6723   -2.2069    0.0000 C.3     1  UNL1       -0.0162
     41 C           7.7722   -0.6480    0.0000 C.3     1  UNL1        0.1000
     42 C           6.8671   -7.4175    0.0000 C.3     1  UNL1        0.0953
     43 C           8.6763   -1.1653    0.0000 C.3     1  UNL1        0.0723
     44 C           8.7522   -3.5398    0.0000 C.3     1  UNL1       -0.0585
     45 C           5.9295   -6.8714    0.0000 C.3     1  UNL1        0.0825
     46 C           6.0279   -4.7588    0.0000 C.3     1  UNL1       -0.0589
     47 C           6.0322   -2.7240    0.0000 C.2     1  UNL1       -0.0836
     48 C           8.7497   -2.8871    0.0000 C.3     1  UNL1       -0.0552
     49 C           5.9223   -0.6622    0.0000 C.3     1  UNL1       -0.0402
     50 C           7.7764    0.4370    0.0000 C.3     1  UNL1       -0.0338
     51 C           5.9014    0.4226    0.0000 C.3     1  UNL1       -0.0343
     52 C           8.8046   -6.8637    0.0000 C.3     1  UNL1        0.0523
     53 C           8.3113   -7.7335    0.0000 C.3     1  UNL1       -0.0547
     54 C           6.8347    0.9759    0.0000 C.3     1  UNL1       -0.0467
     55 C           8.6324   -0.1380    0.0000 C.2     1  UNL1        0.3186
     56 C           5.3881    1.2808    0.0000 C.3     1  UNL1       -0.0598
     57 C           4.9015    0.4071    0.0000 C.3     1  UNL1       -0.0598
     58 C           6.0010   -8.9175    0.0000 C.3     1  UNL1        0.1883
     59 C           6.0010   -9.9175    0.0000 C.3     1  UNL1        0.1341
     60 C          10.3644   -0.1180    0.0000 C.3     1  UNL1        0.2340
     61 C           5.1350  -10.4175    0.0000 C.3     1  UNL1        0.1141
     62 C           4.2690   -8.9175    0.0000 C.3     1  UNL1        0.1130
     63 C           4.2690   -9.9175    0.0000 C.3     1  UNL1        0.1119
     64 C          10.3528    0.8820    0.0000 C.3     1  UNL1        0.1520
     65 C          11.2130    1.3920    0.0000 C.3     1  UNL1        0.1155
     66 C          12.0963   -0.0979    0.0000 C.3     1  UNL1        0.0883
     67 C           3.4030   -8.4175    0.0000 C.3     1  UNL1        0.0730
     68 C          12.0847    0.9020    0.0000 C.3     1  UNL1        0.1096
     69 C          12.9681   -0.5879    0.0000 C.3     1  UNL1       -0.0360
     70 C           9.4695    2.3718    0.0000 C.3     1  UNL1        0.1885
     71 C           8.5977    2.8618    0.0000 C.3     1  UNL1        0.1341
     72 C           8.5862    3.8617    0.0000 C.3     1  UNL1        0.1143
     73 C          10.3181    3.8818    0.0000 C.3     1  UNL1        0.0877
     74 C           9.4464    4.3717    0.0000 C.3     1  UNL1        0.1160
     75 C          11.1783    4.3918    0.0000 C.3     1  UNL1       -0.0361
     76 C          10.2950    5.8816    0.0000 C.3     1  UNL1        0.1880
     77 C          10.2834    6.8816    0.0000 C.3     1  UNL1        0.1345
     78 C          11.1436    7.3916    0.0000 C.3     1  UNL1        0.1202
     79 C          12.0269    5.9017    0.0000 C.3     1  UNL1        0.0792
     80 C          12.0154    6.9016    0.0000 C.3     1  UNL1        0.1073
     81 C          11.9922    8.9015    0.0000 C.3     1  UNL1        0.1883
     82 C          11.9807    9.9014    0.0000 C.3     1  UNL1        0.1341
     83 C          12.8409   10.4114    0.0000 C.3     1  UNL1        0.1140
     84 C          13.7242    8.9215    0.0000 C.3     1  UNL1        0.0873
     85 C          13.7126    9.9214    0.0000 C.3     1  UNL1        0.1095
     86 C          14.5959    8.4315    0.0000 C.3     1  UNL1       -0.0361
     87 H           7.6385   -4.6484    0.0000 H       1  UNL1        0.0315
     88 H           8.5314   -6.2058    0.0000 H       1  UNL1        0.0313
     89 H           9.2921   -4.3196    0.0000 H       1  UNL1        0.0271
     90 H           8.8824   -3.6345    0.0000 H       1  UNL1        0.0271
     91 H           8.9079   -5.8434    0.0000 H       1  UNL1        0.0268
     92 H           9.3017   -5.1490    0.0000 H       1  UNL1        0.0268
     93 H           5.7398   -5.2004    0.0000 H       1  UNL1        0.0296
     94 H           5.3300   -5.8855    0.0000 H       1  UNL1        0.0296
     95 H           6.1502   -1.6211    0.0000 H       1  UNL1        0.0357
     96 H           5.4251   -3.6186    0.0000 H       1  UNL1        0.0310
     97 H           5.8263   -4.3074    0.0000 H       1  UNL1        0.0310
     98 H           8.8791   -2.7914    0.0000 H       1  UNL1        0.0299
     99 H           9.2836   -2.1032    0.0000 H       1  UNL1        0.0299
    100 H           7.4046   -7.7265    0.0000 H       1  UNL1        0.0629
    101 H           8.8872   -0.5823    0.0000 H       1  UNL1        0.0605
    102 H           8.8623   -4.1500    0.0000 H       1  UNL1        0.0235
    103 H           9.3624   -3.4298    0.0000 H       1  UNL1        0.0235
    104 H           8.6422   -2.9297    0.0000 H       1  UNL1        0.0235
    105 H           5.9259   -7.4914    0.0000 H       1  UNL1        0.0619
    106 H           6.3400   -4.2231    0.0000 H       1  UNL1        0.0235
    107 H           5.4922   -4.4468    0.0000 H       1  UNL1        0.0235
    108 H           5.7158   -5.2946    0.0000 H       1  UNL1        0.0235
    109 H           5.4941   -2.4160    0.0000 H       1  UNL1        0.0572
    110 H           8.6444   -3.4981    0.0000 H       1  UNL1        0.0238
    111 H           9.3607   -2.9924    0.0000 H       1  UNL1        0.0238
    112 H           8.8550   -2.2761    0.0000 H       1  UNL1        0.0238
    113 H           5.3095   -0.5679    0.0000 H       1  UNL1        0.0276
    114 H           5.7246   -1.2498    0.0000 H       1  UNL1        0.0276
    115 H           8.3869    0.3286    0.0000 H       1  UNL1        0.0277
    116 H           7.9877    1.0199    0.0000 H       1  UNL1        0.0277
    117 H           9.3855   -6.6471    0.0000 H       1  UNL1        0.0563
    118 H           8.6922   -6.2539    0.0000 H       1  UNL1        0.0563
    119 H           7.7767   -8.0477    0.0000 H       1  UNL1        0.0237
    120 H           8.6254   -8.2681    0.0000 H       1  UNL1        0.0237
    121 H           8.8458   -7.4194    0.0000 H       1  UNL1        0.0237
    122 H           7.2302    1.4534    0.0000 H       1  UNL1        0.0271
    123 H           6.4319    1.4472    0.0000 H       1  UNL1        0.0271
    124 H           9.8732   -1.9216    0.0000 H       1  UNL1        0.2098
    125 H           4.5251   -7.0506    0.0000 H       1  UNL1        0.2099
    126 H           4.8920    1.0271    0.0000 H       1  UNL1        0.0235
    127 H           4.2816    0.3976    0.0000 H       1  UNL1        0.0235
    128 H           5.9202    1.5990    0.0000 H       1  UNL1        0.0235
    129 H           5.0699    1.8129    0.0000 H       1  UNL1        0.0235
    130 H           4.8560    0.9625    0.0000 H       1  UNL1        0.0235
    131 H           4.9111   -0.2128    0.0000 H       1  UNL1        0.0235
    132 H           6.0010   -8.2975    0.0000 H       1  UNL1        0.0938
    133 H           9.9312   -7.7210    0.0000 H       1  UNL1        0.2094
    134 H           6.0010  -10.5375    0.0000 H       1  UNL1        0.0671
    135 H          10.3715   -0.7379    0.0000 H       1  UNL1        0.1085
    136 H           4.5981  -10.7275    0.0000 H       1  UNL1        0.0648
    137 H           4.2690   -8.2975    0.0000 H       1  UNL1        0.0647
    138 H           3.7320   -9.6075    0.0000 H       1  UNL1        0.0647
    139 H          10.3456    1.5019    0.0000 H       1  UNL1        0.0687
    140 H           6.8671  -11.0375    0.0000 H       1  UNL1        0.2101
    141 H          11.7463    1.7081    0.0000 H       1  UNL1        0.0648
    142 H          12.1035   -0.7179    0.0000 H       1  UNL1        0.0621
    143 H           3.8015   -7.9426    0.0000 H       1  UNL1        0.0584
    144 H           3.0044   -7.9426    0.0000 H       1  UNL1        0.0584
    145 H          12.6252    0.5982    0.0000 H       1  UNL1        0.0646
    146 H           4.5981  -11.7275    0.0000 H       1  UNL1        0.2100
    147 H           3.4030  -11.0375    0.0000 H       1  UNL1        0.2100
    148 H          12.6643   -1.1284    0.0000 H       1  UNL1        0.0255
    149 H          13.5085   -0.8917    0.0000 H       1  UNL1        0.0255
    150 H          13.2718   -0.0474    0.0000 H       1  UNL1        0.0255
    151 H           8.9362    2.0557    0.0000 H       1  UNL1        0.0938
    152 H          11.7347    2.7081    0.0000 H       1  UNL1        0.2100
    153 H           2.0000   -8.6075    0.0000 H       1  UNL1        0.2095
    154 H          13.4854    1.1082    0.0000 H       1  UNL1        0.2100
    155 H           8.0573    3.1656    0.0000 H       1  UNL1        0.0671
    156 H           8.5790    4.4817    0.0000 H       1  UNL1        0.0648
    157 H          10.8586    3.5780    0.0000 H       1  UNL1        0.0621
    158 H           9.9797    4.6879    0.0000 H       1  UNL1        0.0650
    159 H           7.1971    2.6556    0.0000 H       1  UNL1        0.2101
    160 H          11.4945    3.8584    0.0000 H       1  UNL1        0.0255
    161 H          11.7116    4.7079    0.0000 H       1  UNL1        0.0255
    162 H          10.8621    4.9251    0.0000 H       1  UNL1        0.0255
    163 H           7.7073    4.9716    0.0000 H       1  UNL1        0.2100
    164 H          10.3022    5.2617    0.0000 H       1  UNL1        0.0937
    165 H           9.7501    6.5654    0.0000 H       1  UNL1        0.0671
    166 H          11.6769    7.7077    0.0000 H       1  UNL1        0.0651
    167 H          12.2457    5.3215    0.0000 H       1  UNL1        0.0587
    168 H          12.6362    6.0164    0.0000 H       1  UNL1        0.0587
    169 H          12.5558    6.5978    0.0000 H       1  UNL1        0.0643
    170 H           9.4045    7.9915    0.0000 H       1  UNL1        0.2101
    171 H          13.4160    7.1078    0.0000 H       1  UNL1        0.2100
    172 H          11.9994    8.2815    0.0000 H       1  UNL1        0.0938
    173 H          11.4474    9.5852    0.0000 H       1  UNL1        0.0671
    174 H          13.3742   10.7276    0.0000 H       1  UNL1        0.0648
    175 H          13.7313    8.3015    0.0000 H       1  UNL1        0.0621
    176 H          14.2531    9.6176    0.0000 H       1  UNL1        0.0646
    177 H          11.1017   11.0113    0.0000 H       1  UNL1        0.2101
    178 H          14.2921    7.8910    0.0000 H       1  UNL1        0.0255
    179 H          15.1364    8.1278    0.0000 H       1  UNL1        0.0255
    180 H          14.8997    8.9720    0.0000 H       1  UNL1        0.0255
    181 H          13.3626   11.7275    0.0000 H       1  UNL1        0.2100
    182 H          15.1133   10.1276    0.0000 H       1  UNL1        0.2100
@<TRIPOS>BOND
     1    42     1    1
     2    58     1    1
     3    43     2    1
     4     2   124    1
     5    45     3    1
     6     3   125    1
     7     4    52    1
     8     4   133    1
     9     5    55    1
    10    60     5    1
    11     6    55    2
    12     7    58    1
    13     7    62    1
    14     8    60    1
    15     8    66    1
    16    59     9    1
    17     9   140    1
    18    61    10    1
    19    10   146    1
    20    64    11    1
    21    70    11    1
    22    63    12    1
    23    12   147    1
    24    65    13    1
    25    13   152    1
    26    14    67    1
    27    14   153    1
    28    68    15    1
    29    15   154    1
    30    16    70    1
    31    16    73    1
    32    71    17    1
    33    17   159    1
    34    72    18    1
    35    18   163    1
    36    74    19    1
    37    76    19    1
    38    20    76    1
    39    20    79    1
    40    77    21    1
    41    21   170    1
    42    78    22    1
    43    81    22    1
    44    80    23    1
    45    23   171    1
    46    24    81    1
    47    24    84    1
    48    82    25    1
    49    25   177    1
    50    83    26    1
    51    26   181    1
    52    85    27    1
    53    27   182    1
    54    28    30    1
    55    28    31    1
    56    28    33    1
    57    28    44    1
    58    29    30    1
    59    29    32    1
    60    29    37    1
    61    29    46    1
    62    30    39    1
    63    30    87    1
    64    31    36    1
    65    31    40    1
    66    31    48    1
    67    32    34    1
    68    32    35    1
    69    32    88    1
    70    33    35    1
    71    33    89    1
    72    33    90    1
    73    34    42    1
    74    34    52    1
    75    34    53    1
    76    35    91    1
    77    35    92    1
    78    36    38    1
    79    36    47    2
    80    37    45    1
    81    37    93    1
    82    37    94    1
    83    38    41    1
    84    38    49    1
    85    38    95    1
    86    39    47    1
    87    39    96    1
    88    39    97    1
    89    40    43    1
    90    40    98    1
    91    40    99    1
    92    41    43    1
    93    41    50    1
    94    41    55    1
    95    42    45    1
    96    42   100    1
    97    43   101    1
    98    44   102    1
    99    44   103    1
   100    44   104    1
   101    45   105    1
   102    46   106    1
   103    46   107    1
   104    46   108    1
   105    47   109    1
   106    48   110    1
   107    48   111    1
   108    48   112    1
   109    49    51    1
   110    49   113    1
   111    49   114    1
   112    50    54    1
   113    50   115    1
   114    50   116    1
   115    51    54    1
   116    51    56    1
   117    51    57    1
   118    52   117    1
   119    52   118    1
   120    53   119    1
   121    53   120    1
   122    53   121    1
   123    54   122    1
   124    54   123    1
   125    56   128    1
   126    56   129    1
   127    56   130    1
   128    57   126    1
   129    57   127    1
   130    57   131    1
   131    58    59    1
   132    58   132    1
   133    59    61    1
   134    59   134    1
   135    60    64    1
   136    60   135    1
   137    61    63    1
   138    61   136    1
   139    62    63    1
   140    62    67    1
   141    62   137    1
   142    63   138    1
   143    64    65    1
   144    64   139    1
   145    65    68    1
   146    65   141    1
   147    66    68    1
   148    66    69    1
   149    66   142    1
   150    67   143    1
   151    67   144    1
   152    68   145    1
   153    69   148    1
   154    69   149    1
   155    69   150    1
   156    70    71    1
   157    70   151    1
   158    71    72    1
   159    71   155    1
   160    72    74    1
   161    72   156    1
   162    73    74    1
   163    73    75    1
   164    73   157    1
   165    74   158    1
   166    75   160    1
   167    75   161    1
   168    75   162    1
   169    76    77    1
   170    76   164    1
   171    77    78    1
   172    77   165    1
   173    78    80    1
   174    78   166    1
   175    79    80    1
   176    79   167    1
   177    79   168    1
   178    80   169    1
   179    81    82    1
   180    81   172    1
   181    82    83    1
   182    82   173    1
   183    83    85    1
   184    83   174    1
   185    84    85    1
   186    84    86    1
   187    84   175    1
   188    85   176    1
   189    86   178    1
   190    86   179    1
   191    86   180    1
