@<TRIPOS>MOLECULE
IMPHY013925
 57 60 0 0 0
SMALL
GASTEIGER

@<TRIPOS>ATOM
      1 O           7.2641   -1.7327    0.0000 O.3     1  UNL1       -0.4937
      2 O           5.5321    1.2673    0.0000 O.3     1  UNL1       -0.4944
      3 O           4.6660    0.7673    0.0000 O.3     1  UNL1       -0.5054
      4 O           2.9176    0.8019    0.0000 O.3     1  UNL1       -0.4944
      5 N           9.9301   -0.2535    0.0000 N.2     1  UNL1       -0.2844
      6 C           9.0241    1.3020    0.0000 C.3     1  UNL1       -0.0046
      7 C           8.1301    0.7673    0.0000 C.ar    1  UNL1       -0.0295
      8 C           9.9301    0.7881    0.0000 C.3     1  UNL1        0.0523
      9 C           8.1301   -0.2327    0.0000 C.ar    1  UNL1        0.0413
     10 C           6.3981   -0.2327    0.0000 C.ar    1  UNL1        0.0698
     11 C           7.2641   -0.7327    0.0000 C.ar    1  UNL1        0.1405
     12 C           9.0241   -0.7673    0.0000 C.2     1  UNL1        0.0440
     13 C           7.2641    1.2673    0.0000 C.ar    1  UNL1       -0.0153
     14 C           5.5321   -0.7327    0.0000 C.ar    1  UNL1        0.0342
     15 C           6.3981    0.7673    0.0000 C.ar    1  UNL1        0.1317
     16 C          10.7942    1.2915    0.0000 C.3     1  UNL1       -0.0424
     17 C           5.5321   -1.7327    0.0000 C.ar    1  UNL1       -0.0384
     18 C           4.6660   -0.2327    0.0000 C.ar    1  UNL1        0.1362
     19 C           3.8000   -0.7327    0.0000 C.ar    1  UNL1        0.0657
     20 C           9.0125   -1.7673    0.0000 C.3     1  UNL1       -0.0221
     21 C           3.8000   -1.7327    0.0000 C.ar    1  UNL1       -0.0106
     22 C           4.6660   -2.2327    0.0000 C.ar    1  UNL1       -0.0502
     23 C           6.3981   -2.2327    0.0000 C.3     1  UNL1       -0.0390
     24 C           2.9061   -0.1980    0.0000 C.ar    1  UNL1        0.1313
     25 C           2.9061   -2.2673    0.0000 C.ar    1  UNL1       -0.0537
     26 C           2.0000   -0.7119    0.0000 C.ar    1  UNL1       -0.0192
     27 C           2.0000   -1.7535    0.0000 C.ar    1  UNL1       -0.0577
     28 C           8.1301   -2.2327    0.0000 C.3     1  UNL1        0.0788
     29 C           5.5321    2.2673    0.0000 C.3     1  UNL1        0.0788
     30 C           2.0574    1.3119    0.0000 C.3     1  UNL1        0.0788
     31 H           9.4177    1.7810    0.0000 H       1  UNL1        0.0334
     32 H           8.6195    1.7718    0.0000 H       1  UNL1        0.0334
     33 H          10.4677    0.4792    0.0000 H       1  UNL1        0.0545
     34 H           7.2641    1.8873    0.0000 H       1  UNL1        0.0657
     35 H          11.1063    0.7557    0.0000 H       1  UNL1        0.0250
     36 H          11.3300    1.6036    0.0000 H       1  UNL1        0.0250
     37 H          10.4822    1.8272    0.0000 H       1  UNL1        0.0250
     38 H           8.3926   -1.7601    0.0000 H       1  UNL1        0.0293
     39 H           9.0053   -2.3872    0.0000 H       1  UNL1        0.0293
     40 H           9.6325   -1.7744    0.0000 H       1  UNL1        0.0293
     41 H           4.6660   -2.8527    0.0000 H       1  UNL1        0.0626
     42 H           6.0881   -2.7696    0.0000 H       1  UNL1        0.0278
     43 H           6.9350   -2.5427    0.0000 H       1  UNL1        0.0278
     44 H           6.7081   -1.6957    0.0000 H       1  UNL1        0.0278
     45 H           2.9132   -2.8873    0.0000 H       1  UNL1        0.0624
     46 H           1.4643   -0.3998    0.0000 H       1  UNL1        0.0654
     47 H           1.4643   -2.0656    0.0000 H       1  UNL1        0.0619
     48 H           7.8201   -2.7696    0.0000 H       1  UNL1        0.0660
     49 H           8.6671   -2.5427    0.0000 H       1  UNL1        0.0660
     50 H           8.4401   -1.6957    0.0000 H       1  UNL1        0.0660
     51 H           4.1291    1.0773    0.0000 H       1  UNL1        0.2922
     52 H           6.1521    2.2673    0.0000 H       1  UNL1        0.0660
     53 H           5.5321    2.8873    0.0000 H       1  UNL1        0.0660
     54 H           4.9121    2.2673    0.0000 H       1  UNL1        0.0660
     55 H           2.3736    1.8452    0.0000 H       1  UNL1        0.0660
     56 H           1.5241    1.6281    0.0000 H       1  UNL1        0.0660
     57 H           1.7413    0.7786    0.0000 H       1  UNL1        0.0660
@<TRIPOS>BOND
     1     1    11    1
     2     1    28    1
     3     2    15    1
     4     2    29    1
     5     3    18    1
     6     3    51    1
     7     4    24    1
     8     4    30    1
     9     5     8    1
    10     5    12    2
    11     6     7    1
    12     6     8    1
    13     6    31    1
    14     6    32    1
    15     7     9   ar
    16     7    13   ar
    17     8    16    1
    18     8    33    1
    19     9    11   ar
    20     9    12    1
    21    10    11   ar
    22    10    14    1
    23    10    15   ar
    24    12    20    1
    25    13    15   ar
    26    13    34    1
    27    14    17   ar
    28    14    18   ar
    29    16    35    1
    30    16    36    1
    31    16    37    1
    32    17    22   ar
    33    17    23    1
    34    18    19   ar
    35    19    21   ar
    36    19    24   ar
    37    20    38    1
    38    20    39    1
    39    20    40    1
    40    21    22   ar
    41    21    25   ar
    42    22    41    1
    43    23    42    1
    44    23    43    1
    45    23    44    1
    46    24    26   ar
    47    25    27   ar
    48    25    45    1
    49    26    27   ar
    50    26    46    1
    51    27    47    1
    52    28    48    1
    53    28    49    1
    54    28    50    1
    55    29    52    1
    56    29    53    1
    57    29    54    1
    58    30    55    1
    59    30    56    1
    60    30    57    1
