@<TRIPOS>MOLECULE
IMPHY017234
 30 30 0 0 0
SMALL
GASTEIGER

@<TRIPOS>ATOM
      1 O           2.8660    0.0000    0.0000 O.3     1  UNL1       -0.4613
      2 O           4.5981    0.0000    0.0000 O.2     1  UNL1       -0.2508
      3 C           2.8660   -1.0000    0.0000 C.3     1  UNL1        0.1031
      4 C           2.0000   -1.5000    0.0000 C.3     1  UNL1       -0.0157
      5 C           3.7320   -1.5000    0.0000 C.3     1  UNL1       -0.0157
      6 C           2.0000   -2.5000    0.0000 C.3     1  UNL1       -0.0497
      7 C           3.7320   -2.5000    0.0000 C.3     1  UNL1       -0.0497
      8 C           2.8660   -3.0000    0.0000 C.3     1  UNL1       -0.0528
      9 C           3.7320    0.5000    0.0000 C.2     1  UNL1        0.3073
     10 C           3.7320    1.5000    0.0000 C.3     1  UNL1        0.0447
     11 C           4.5981    2.0000    0.0000 C.3     1  UNL1       -0.0458
     12 C           4.5981    3.0000    0.0000 C.3     1  UNL1       -0.0648
     13 H           3.4030   -0.6900    0.0000 H       1  UNL1        0.0734
     14 H           1.7880   -0.9174    0.0000 H       1  UNL1        0.0301
     15 H           1.3894   -1.6077    0.0000 H       1  UNL1        0.0301
     16 H           4.3426   -1.6077    0.0000 H       1  UNL1        0.0301
     17 H           3.9441   -0.9174    0.0000 H       1  UNL1        0.0301
     18 H           1.3894   -2.3923    0.0000 H       1  UNL1        0.0266
     19 H           1.7880   -3.0826    0.0000 H       1  UNL1        0.0266
     20 H           3.9441   -3.0826    0.0000 H       1  UNL1        0.0266
     21 H           4.3426   -2.3923    0.0000 H       1  UNL1        0.0266
     22 H           2.4675   -3.4750    0.0000 H       1  UNL1        0.0265
     23 H           3.2646   -3.4750    0.0000 H       1  UNL1        0.0265
     24 H           3.5200    2.0826    0.0000 H       1  UNL1        0.0377
     25 H           3.1215    1.3923    0.0000 H       1  UNL1        0.0377
     26 H           4.8101    1.4174    0.0000 H       1  UNL1        0.0268
     27 H           5.2087    2.1077    0.0000 H       1  UNL1        0.0268
     28 H           5.2181    3.0000    0.0000 H       1  UNL1        0.0230
     29 H           4.5981    3.6200    0.0000 H       1  UNL1        0.0230
     30 H           3.9781    3.0000    0.0000 H       1  UNL1        0.0230
@<TRIPOS>BOND
     1     1     3    1
     2     1     9    1
     3     2     9    2
     4     3     4    1
     5     3     5    1
     6     3    13    1
     7     4     6    1
     8     4    14    1
     9     4    15    1
    10     5     7    1
    11     5    16    1
    12     5    17    1
    13     6     8    1
    14     6    18    1
    15     6    19    1
    16     7     8    1
    17     7    20    1
    18     7    21    1
    19     8    22    1
    20     8    23    1
    21     9    10    1
    22    10    11    1
    23    10    24    1
    24    10    25    1
    25    11    12    1
    26    11    26    1
    27    11    27    1
    28    12    28    1
    29    12    29    1
    30    12    30    1
