@<TRIPOS>MOLECULE
IMPHY009038
 39 43 0 0 0
SMALL
GASTEIGER

@<TRIPOS>ATOM
      1 O           3.0000    1.3689    0.0000 O.3     1  UNL1       -0.4815
      2 O           6.8190   -1.6589    0.0000 O.2     1  UNL1       -0.4537
      3 O           6.6098    1.3129    0.0000 O.2     1  UNL1       -0.4208
      4 O           8.3419    1.3129    0.0000 O.2     1  UNL1       -0.2444
      5 O          10.0173   -3.3219    0.0000 O.3     1  UNL1       -0.5066
      6 C           3.0000    2.4539    0.0000 C.3     1  UNL1        0.1235
      7 C           4.8498    1.3475    0.0000 C.ar    1  UNL1        0.0596
      8 C           5.7438   -0.1871    0.0000 C.ar    1  UNL1        0.0613
      9 C           5.7438    0.8129    0.0000 C.ar    1  UNL1        0.1532
     10 C           3.9438    0.8337    0.0000 C.ar    1  UNL1        0.1324
     11 C           6.6098   -0.6871    0.0000 C.ar    1  UNL1        0.1538
     12 C           7.4758   -0.1871    0.0000 C.ar    1  UNL1        0.1128
     13 C           3.9438    2.9892    0.0000 C.2     1  UNL1       -0.0408
     14 C           4.8749    2.4322    0.0000 C.2     1  UNL1       -0.0478
     15 C           8.2129   -0.8542    0.0000 C.ar    1  UNL1        0.0351
     16 C           2.5033    3.3219    0.0000 C.3     1  UNL1       -0.0215
     17 C           2.0000    2.4578    0.0000 C.3     1  UNL1       -0.0215
     18 C           4.8498   -0.7218    0.0000 C.ar    1  UNL1       -0.0440
     19 C           3.9438   -0.2079    0.0000 C.ar    1  UNL1       -0.0184
     20 C           7.8077   -1.7620    0.0000 C.ar    1  UNL1        0.1400
     21 C           7.4758    0.8129    0.0000 C.ar    1  UNL1        0.3488
     22 C           9.2410   -0.7310    0.0000 C.ar    1  UNL1       -0.0467
     23 C           8.4026   -2.6095    0.0000 C.ar    1  UNL1        0.0228
     24 C           9.8553   -1.5645    0.0000 C.ar    1  UNL1       -0.0194
     25 C           9.4333   -2.5101    0.0000 C.ar    1  UNL1        0.1204
     26 H           3.9510    3.6091    0.0000 H       1  UNL1        0.0611
     27 H           5.4178    2.7318    0.0000 H       1  UNL1        0.0624
     28 H           3.0415    3.6298    0.0000 H       1  UNL1        0.0271
     29 H           2.1954    3.8600    0.0000 H       1  UNL1        0.0271
     30 H           1.9652    3.0140    0.0000 H       1  UNL1        0.0271
     31 H           2.0024    3.0778    0.0000 H       1  UNL1        0.0271
     32 H           1.3800    2.4602    0.0000 H       1  UNL1        0.0271
     33 H           1.9976    1.8378    0.0000 H       1  UNL1        0.0271
     34 H           4.8570   -1.3417    0.0000 H       1  UNL1        0.0627
     35 H           3.4080   -0.5200    0.0000 H       1  UNL1        0.0654
     36 H           9.4871   -0.1619    0.0000 H       1  UNL1        0.0626
     37 H           8.1434   -3.1727    0.0000 H       1  UNL1        0.0691
     38 H          10.4717   -1.4979    0.0000 H       1  UNL1        0.0654
     39 H          10.6342   -3.2600    0.0000 H       1  UNL1        0.2921
@<TRIPOS>BOND
     1     1     6    1
     2     1    10    1
     3     2    11   ar
     4     2    20   ar
     5     3     9   ar
     6     3    21   ar
     7     4    21    2
     8     5    25    1
     9     5    39    1
    10     6    13    1
    11     6    16    1
    12     6    17    1
    13     7     9   ar
    14     7    10   ar
    15     7    14    1
    16     8     9   ar
    17     8    11   ar
    18     8    18   ar
    19    10    19   ar
    20    11    12   ar
    21    12    15   ar
    22    12    21   ar
    23    13    14    2
    24    13    26    1
    25    14    27    1
    26    15    20   ar
    27    15    22   ar
    28    16    28    1
    29    16    29    1
    30    16    30    1
    31    17    31    1
    32    17    32    1
    33    17    33    1
    34    18    19   ar
    35    18    34    1
    36    19    35    1
    37    20    23   ar
    38    22    24   ar
    39    22    36    1
    40    23    25   ar
    41    23    37    1
    42    24    25   ar
    43    24    38    1
