@<TRIPOS>MOLECULE
IMPHY010700
 41 46 0 0 0
SMALL
GASTEIGER

@<TRIPOS>ATOM
      1 O           1.3127   -2.6528    0.0000 O.3     1  UNL1       -0.4800
      2 C           1.3127   -3.9655    0.0000 C.3     1  UNL1        0.1649
      3 C           2.4750   -4.6218    0.0000 C.3     1  UNL1        0.2321
      4 C           3.5963   -3.9655    0.0000 C.3     1  UNL1        0.2276
      5 C           3.5963   -2.6528    0.0000 C.ar    1  UNL1        0.0884
      6 C           4.7449   -1.9691    0.0000 C.ar    1  UNL1        0.1510
      7 O           5.9072   -2.6528    0.0000 O.2     1  UNL1       -0.4211
      8 C           7.0285   -1.9691    0.0000 C.ar    1  UNL1        0.3459
      9 C           7.0285   -0.6700    0.0000 C.ar    1  UNL1        0.0824
     10 C           5.9072    0.0000    0.0000 C.ar    1  UNL1        0.0097
     11 C           4.7449   -0.6700    0.0000 C.ar    1  UNL1        0.0349
     12 C           3.5963    0.0000    0.0000 C.ar    1  UNL1        0.0061
     13 C           2.4750   -0.6700    0.0000 C.ar    1  UNL1        0.0369
     14 C           2.4750   -1.9691    0.0000 C.ar    1  UNL1        0.1407
     15 C           0.6564   -5.1141    0.0000 C.3     1  UNL1        0.0464
     16 C           0.0000   -3.9655    0.0000 C.3     1  UNL1        0.0464
     17 O           2.4750   -5.9482    0.0000 O.3     1  UNL1       -0.2151
     18 O           4.7449   -4.6218    0.0000 O.3     1  UNL1       -0.4716
     19 C           4.7449   -6.4132    0.0000 C.ar    1  UNL1        0.1446
     20 C           5.9072   -7.0969    0.0000 C.ar    1  UNL1        0.0687
     21 C           7.0422   -6.4132    0.0000 C.ar    1  UNL1        0.0127
     22 C           8.1908   -7.0969    0.0000 C.ar    1  UNL1        0.0825
     23 C           8.1908   -8.4232    0.0000 C.ar    1  UNL1        0.3459
     24 O           7.0422   -9.0523    0.0000 O.2     1  UNL1       -0.4211
     25 C           5.9072   -8.4232    0.0000 C.ar    1  UNL1        0.1507
     26 C           4.7449   -9.0523    0.0000 C.ar    1  UNL1        0.0497
     27 C           3.6100   -8.4232    0.0000 C.ar    1  UNL1        0.1407
     28 O           2.4750   -9.0523    0.0000 O.3     1  UNL1       -0.4787
     29 C           1.3264   -8.4232    0.0000 C.3     1  UNL1        0.1517
     30 C           1.3264   -7.0969    0.0000 C.2     1  UNL1        0.0130
     31 C           2.4750   -6.4132    0.0000 C.2     1  UNL1        0.0049
     32 C           3.6100   -7.0969    0.0000 C.ar    1  UNL1        0.0676
     33 O           8.1908   -2.6528    0.0000 O.2     1  UNL1       -0.2445
     34 O           9.3394   -9.0523    0.0000 O.2     1  UNL1       -0.2445
     35 C           4.7449  -10.3786    0.0000 C.3     1  UNL1        0.0432
     36 C           6.0713  -10.3786    0.0000 C.3     1  UNL1        0.0090
     37 C           0.6700   -9.5719    0.0000 C.3     1  UNL1        0.0483
     38 C           0.0000   -8.4232    0.0000 C.3     1  UNL1        0.0483
     39 C           3.4322  -10.3786    0.0000 C.3     1  UNL1        0.0090
     40 C           4.7449  -11.7050    0.0000 C.2     1  UNL1       -0.0225
     41 C           3.6100  -12.3751    0.0000 C.2     1  UNL1       -0.0046
@<TRIPOS>BOND
     1     1    14    1
     2     1     2    1
     3     2     3    1
     4     2    15    1
     5     2    16    1
     6     3     4    1
     7     3    17    1
     8     4     5    1
     9     4    18    1
    10     5     6   ar
    11     5    14   ar
    12     6     7   ar
    13     6    11   ar
    14     7     8   ar
    15     8     9   ar
    16     8    33    2
    17     9    10   ar
    18    10    11   ar
    19    11    12   ar
    20    12    13   ar
    21    13    14   ar
    22    18    19    1
    23    19    20   ar
    24    19    32   ar
    25    20    21   ar
    26    20    25   ar
    27    21    22   ar
    28    22    23   ar
    29    23    24   ar
    30    23    34    2
    31    24    25   ar
    32    25    26   ar
    33    26    27   ar
    34    26    35    1
    35    27    32   ar
    36    27    28    1
    37    28    29    1
    38    29    30    1
    39    29    37    1
    40    29    38    1
    41    30    31    2
    42    31    32    1
    43    35    40    1
    44    35    36    1
    45    35    39    1
    46    40    41    2
