@<TRIPOS>MOLECULE
IMPHY013767
 22 22 0 0 0
SMALL
GASTEIGER

@<TRIPOS>ATOM
      1 O           3.7320    1.0000    0.0000 O.3     1  UNL1       -0.3755
      2 C           2.8660   -0.5000    0.0000 C.ar    1  UNL1       -0.0219
      3 C           2.8660    0.5000    0.0000 C.3     1  UNL1        0.0727
      4 C           2.0000   -1.0000    0.0000 C.ar    1  UNL1       -0.0564
      5 C           3.7320   -1.0000    0.0000 C.ar    1  UNL1       -0.0564
      6 C           3.7320    2.0000    0.0000 C.3     1  UNL1        0.0453
      7 C           2.0000   -2.0000    0.0000 C.ar    1  UNL1       -0.0614
      8 C           3.7320   -2.0000    0.0000 C.ar    1  UNL1       -0.0614
      9 C           2.8660   -2.5000    0.0000 C.ar    1  UNL1       -0.0617
     10 C           4.5981    2.5000    0.0000 C.3     1  UNL1       -0.0416
     11 H           2.6540    1.0826    0.0000 H       1  UNL1        0.0610
     12 H           2.2554    0.3923    0.0000 H       1  UNL1        0.0610
     13 H           3.5200    2.5826    0.0000 H       1  UNL1        0.0557
     14 H           3.1215    1.8923    0.0000 H       1  UNL1        0.0557
     15 H           1.4631   -0.6900    0.0000 H       1  UNL1        0.0621
     16 H           4.2690   -0.6900    0.0000 H       1  UNL1        0.0621
     17 H           1.4631   -2.3100    0.0000 H       1  UNL1        0.0618
     18 H           4.2690   -2.3100    0.0000 H       1  UNL1        0.0618
     19 H           4.9081    1.9631    0.0000 H       1  UNL1        0.0252
     20 H           5.1350    2.8100    0.0000 H       1  UNL1        0.0252
     21 H           4.2881    3.0369    0.0000 H       1  UNL1        0.0252
     22 H           2.8660   -3.1200    0.0000 H       1  UNL1        0.0618
@<TRIPOS>BOND
     1     1     3    1
     2     1     6    1
     3     2     3    1
     4     2     4   ar
     5     2     5   ar
     6     3    11    1
     7     3    12    1
     8     4     7   ar
     9     4    15    1
    10     5     8   ar
    11     5    16    1
    12     6    10    1
    13     6    13    1
    14     6    14    1
    15     7     9   ar
    16     7    17    1
    17     8     9   ar
    18     8    18    1
    19     9    22    1
    20    10    19    1
    21    10    20    1
    22    10    21    1
