@<TRIPOS>MOLECULE
IMPHY017402
 62 61 0 0 0
SMALL
GASTEIGER

@<TRIPOS>ATOM
      1 O           5.1350    2.4400    0.0000 O.3     1  UNL1       -0.3775
      2 O           2.5369    2.9400    0.0000 O.3     1  UNL1       -0.3927
      3 C           9.4651    2.9400    0.0000 C.3     1  UNL1       -0.0530
      4 C          10.3312    2.4400    0.0000 C.3     1  UNL1       -0.0528
      5 C           8.5991    2.4400    0.0000 C.3     1  UNL1       -0.0530
      6 C          15.5273   -0.5600    0.0000 C.3     1  UNL1       -0.0530
      7 C          11.1972    2.9400    0.0000 C.3     1  UNL1       -0.0496
      8 C          14.6613   -0.0600    0.0000 C.3     1  UNL1       -0.0528
      9 C           7.7331    2.9400    0.0000 C.3     1  UNL1       -0.0510
     10 C          15.5273   -1.5600    0.0000 C.3     1  UNL1       -0.0531
     11 C          14.6613    0.9400    0.0000 C.3     1  UNL1       -0.0496
     12 C          12.0632    2.4400    0.0000 C.3     1  UNL1       -0.0348
     13 C          16.3933   -2.0600    0.0000 C.3     1  UNL1       -0.0533
     14 C           6.8671    2.4400    0.0000 C.3     1  UNL1       -0.0295
     15 C          13.7953    1.4400    0.0000 C.3     1  UNL1       -0.0348
     16 C          16.3933   -3.0600    0.0000 C.3     1  UNL1       -0.0559
     17 C          12.9292    2.9400    0.0000 C.2     1  UNL1       -0.0879
     18 C          13.7953    2.4400    0.0000 C.2     1  UNL1       -0.0879
     19 C           6.0010    2.9400    0.0000 C.3     1  UNL1        0.0478
     20 C          17.2594   -3.5600    0.0000 C.3     1  UNL1       -0.0653
     21 C           4.2690    2.9400    0.0000 C.3     1  UNL1        0.0707
     22 C           3.4030    2.4400    0.0000 C.3     1  UNL1        0.0676
     23 H           9.8637    3.4150    0.0000 H       1  UNL1        0.0265
     24 H           9.0666    3.4150    0.0000 H       1  UNL1        0.0265
     25 H           9.9326    1.9650    0.0000 H       1  UNL1        0.0265
     26 H          10.7297    1.9650    0.0000 H       1  UNL1        0.0265
     27 H           8.2006    1.9650    0.0000 H       1  UNL1        0.0265
     28 H           8.9976    1.9650    0.0000 H       1  UNL1        0.0265
     29 H          16.1379   -0.6677    0.0000 H       1  UNL1        0.0265
     30 H          15.7394    0.0226    0.0000 H       1  UNL1        0.0265
     31 H          11.5957    3.4150    0.0000 H       1  UNL1        0.0268
     32 H          10.7987    3.4150    0.0000 H       1  UNL1        0.0268
     33 H          14.0507    0.0477    0.0000 H       1  UNL1        0.0265
     34 H          14.4492   -0.6426    0.0000 H       1  UNL1        0.0265
     35 H           8.1316    3.4150    0.0000 H       1  UNL1        0.0266
     36 H           7.3346    3.4150    0.0000 H       1  UNL1        0.0266
     37 H          14.9167   -1.4523    0.0000 H       1  UNL1        0.0265
     38 H          15.3153   -2.1426    0.0000 H       1  UNL1        0.0265
     39 H          15.2719    0.8323    0.0000 H       1  UNL1        0.0268
     40 H          14.8733    1.5226    0.0000 H       1  UNL1        0.0268
     41 H          11.6647    1.9650    0.0000 H       1  UNL1        0.0307
     42 H          12.4617    1.9650    0.0000 H       1  UNL1        0.0307
     43 H          17.0039   -2.1677    0.0000 H       1  UNL1        0.0265
     44 H          16.6054   -1.4774    0.0000 H       1  UNL1        0.0265
     45 H           6.4685    1.9650    0.0000 H       1  UNL1        0.0287
     46 H           7.2656    1.9650    0.0000 H       1  UNL1        0.0287
     47 H          13.1847    1.5477    0.0000 H       1  UNL1        0.0307
     48 H          13.5832    0.8574    0.0000 H       1  UNL1        0.0307
     49 H          15.7828   -2.9523    0.0000 H       1  UNL1        0.0263
     50 H          16.1813   -3.6426    0.0000 H       1  UNL1        0.0263
     51 H          12.9292    3.5600    0.0000 H       1  UNL1        0.0569
     52 H          14.3322    2.7500    0.0000 H       1  UNL1        0.0569
     53 H           6.3996    3.4150    0.0000 H       1  UNL1        0.0560
     54 H           5.6025    3.4150    0.0000 H       1  UNL1        0.0560
     55 H          16.9494   -4.0969    0.0000 H       1  UNL1        0.0230
     56 H          17.7963   -3.8700    0.0000 H       1  UNL1        0.0230
     57 H          17.5694   -3.0231    0.0000 H       1  UNL1        0.0230
     58 H           4.6675    3.4150    0.0000 H       1  UNL1        0.0583
     59 H           3.8705    3.4150    0.0000 H       1  UNL1        0.0583
     60 H           3.0044    1.9650    0.0000 H       1  UNL1        0.0580
     61 H           3.8015    1.9650    0.0000 H       1  UNL1        0.0580
     62 H           2.0000    2.6300    0.0000 H       1  UNL1        0.2095
@<TRIPOS>BOND
     1     1    19    1
     2     1    21    1
     3     2    22    1
     4     2    62    1
     5     3     4    1
     6     3     5    1
     7     3    23    1
     8     3    24    1
     9     4     7    1
    10     4    25    1
    11     4    26    1
    12     5     9    1
    13     5    27    1
    14     5    28    1
    15     6     8    1
    16     6    10    1
    17     6    29    1
    18     6    30    1
    19     7    12    1
    20     7    31    1
    21     7    32    1
    22     8    11    1
    23     8    33    1
    24     8    34    1
    25     9    14    1
    26     9    35    1
    27     9    36    1
    28    10    13    1
    29    10    37    1
    30    10    38    1
    31    11    15    1
    32    11    39    1
    33    11    40    1
    34    12    17    1
    35    12    41    1
    36    12    42    1
    37    13    16    1
    38    13    43    1
    39    13    44    1
    40    14    19    1
    41    14    45    1
    42    14    46    1
    43    15    18    1
    44    15    47    1
    45    15    48    1
    46    16    20    1
    47    16    49    1
    48    16    50    1
    49    17    18    2
    50    17    51    1
    51    18    52    1
    52    19    53    1
    53    19    54    1
    54    20    55    1
    55    20    56    1
    56    20    57    1
    57    21    22    1
    58    21    58    1
    59    21    59    1
    60    22    60    1
    61    22    61    1
