@<TRIPOS>MOLECULE
IMPHY003512
 26 25 0 0 0
SMALL
GASTEIGER

@<TRIPOS>ATOM
      1 O           3.7320    0.7500    0.0000 O.3     1  UNL1       -0.4649
      2 O           4.5981   -0.7500    0.0000 O.2     1  UNL1       -0.2509
      3 C           7.1962    0.7500    0.0000 C.3     1  UNL1       -0.0528
      4 C           6.3301    0.2500    0.0000 C.3     1  UNL1       -0.0430
      5 C           8.0622    0.2500    0.0000 C.3     1  UNL1       -0.0559
      6 C           5.4641    0.7500    0.0000 C.3     1  UNL1        0.0449
      7 C           8.9282    0.7500    0.0000 C.3     1  UNL1       -0.0653
      8 C           4.5981    0.2500    0.0000 C.2     1  UNL1        0.3071
      9 C           2.8660    0.2500    0.0000 C.3     1  UNL1        0.0896
     10 C           2.0000    0.7500    0.0000 C.3     1  UNL1       -0.0306
     11 H           7.5947    1.2250    0.0000 H       1  UNL1        0.0265
     12 H           6.7976    1.2250    0.0000 H       1  UNL1        0.0265
     13 H           5.9316   -0.2249    0.0000 H       1  UNL1        0.0270
     14 H           6.7287   -0.2249    0.0000 H       1  UNL1        0.0270
     15 H           7.6636   -0.2249    0.0000 H       1  UNL1        0.0263
     16 H           8.4607   -0.2249    0.0000 H       1  UNL1        0.0263
     17 H           5.8626    1.2250    0.0000 H       1  UNL1        0.0377
     18 H           5.0656    1.2250    0.0000 H       1  UNL1        0.0377
     19 H           9.2382    0.2131    0.0000 H       1  UNL1        0.0230
     20 H           9.4651    1.0600    0.0000 H       1  UNL1        0.0230
     21 H           8.6182    1.2869    0.0000 H       1  UNL1        0.0230
     22 H           2.4675   -0.2249    0.0000 H       1  UNL1        0.0694
     23 H           3.2646   -0.2249    0.0000 H       1  UNL1        0.0694
     24 H           2.3100    1.2869    0.0000 H       1  UNL1        0.0262
     25 H           1.4631    1.0600    0.0000 H       1  UNL1        0.0262
     26 H           1.6900    0.2131    0.0000 H       1  UNL1        0.0262
@<TRIPOS>BOND
     1     1     8    1
     2     1     9    1
     3     2     8    2
     4     3     4    1
     5     3     5    1
     6     3    11    1
     7     3    12    1
     8     4     6    1
     9     4    13    1
    10     4    14    1
    11     5     7    1
    12     5    15    1
    13     5    16    1
    14     6     8    1
    15     6    17    1
    16     6    18    1
    17     7    19    1
    18     7    20    1
    19     7    21    1
    20     9    10    1
    21     9    22    1
    22     9    23    1
    23    10    24    1
    24    10    25    1
    25    10    26    1
