@<TRIPOS>MOLECULE
IMPHY001425
 44 45 0 0 0
SMALL
GASTEIGER

@<TRIPOS>ATOM
      1 O           5.1350   -0.3450    0.0000 O.3     1  UNL1       -0.3313
      2 O           6.8671   -0.3450    0.0000 O.3     1  UNL1       -0.4599
      3 O           5.1350   -3.3450    0.0000 O.3     1  UNL1       -0.3864
      4 O           3.4030   -2.3450    0.0000 O.3     1  UNL1       -0.3865
      5 O           6.8671   -2.3450    0.0000 O.3     1  UNL1       -0.3829
      6 O           2.5369   -0.8450    0.0000 O.3     1  UNL1       -0.3924
      7 O           5.1350    2.6550    0.0000 O.3     1  UNL1       -0.4949
      8 O           8.5991    2.6550    0.0000 O.3     1  UNL1       -0.5058
      9 O           8.5991   -0.3450    0.0000 O.2     1  UNL1       -0.2921
     10 C           5.1350   -2.3450    0.0000 C.3     1  UNL1        0.1152
     11 C           4.2690   -1.8450    0.0000 C.3     1  UNL1        0.1120
     12 C           6.0010   -1.8450    0.0000 C.3     1  UNL1        0.1454
     13 C           4.2690   -0.8450    0.0000 C.3     1  UNL1        0.1140
     14 C           6.0010   -0.8450    0.0000 C.3     1  UNL1        0.2308
     15 C           3.4030   -0.3450    0.0000 C.3     1  UNL1        0.0731
     16 C           6.8671    0.6550    0.0000 C.ar    1  UNL1        0.1414
     17 C           7.7331    1.1550    0.0000 C.ar    1  UNL1        0.1003
     18 C           6.0010    1.1550    0.0000 C.ar    1  UNL1        0.0228
     19 C           7.7331    2.1550    0.0000 C.ar    1  UNL1        0.1343
     20 C           6.0010    2.1550    0.0000 C.ar    1  UNL1        0.1271
     21 C           6.8671    2.6550    0.0000 C.ar    1  UNL1        0.0225
     22 C           8.5991    0.6550    0.0000 C.2     1  UNL1        0.1671
     23 C           9.4651    1.1550    0.0000 C.3     1  UNL1       -0.0012
     24 C           5.1350    3.6550    0.0000 C.3     1  UNL1        0.0788
     25 H           5.6720   -2.6550    0.0000 H       1  UNL1        0.0648
     26 H           4.2690   -2.4650    0.0000 H       1  UNL1        0.0647
     27 H           6.5380   -1.5350    0.0000 H       1  UNL1        0.0683
     28 H           4.2690   -0.2250    0.0000 H       1  UNL1        0.0647
     29 H           6.0010   -0.2250    0.0000 H       1  UNL1        0.1084
     30 H           3.8015    0.1299    0.0000 H       1  UNL1        0.0584
     31 H           3.0044    0.1299    0.0000 H       1  UNL1        0.0584
     32 H           4.5981   -3.6550    0.0000 H       1  UNL1        0.2100
     33 H           3.4030   -2.9650    0.0000 H       1  UNL1        0.2100
     34 H           6.8671   -2.9650    0.0000 H       1  UNL1        0.2102
     35 H           2.0000   -0.5350    0.0000 H       1  UNL1        0.2095
     36 H           5.4641    0.8450    0.0000 H       1  UNL1        0.0691
     37 H           6.8671    3.2750    0.0000 H       1  UNL1        0.0691
     38 H           9.7751    0.6181    0.0000 H       1  UNL1        0.0309
     39 H          10.0021    1.4650    0.0000 H       1  UNL1        0.0309
     40 H           9.1551    1.6919    0.0000 H       1  UNL1        0.0309
     41 H           8.5991    3.2750    0.0000 H       1  UNL1        0.2922
     42 H           5.7550    3.6550    0.0000 H       1  UNL1        0.0660
     43 H           5.1350    4.2750    0.0000 H       1  UNL1        0.0660
     44 H           4.5150    3.6550    0.0000 H       1  UNL1        0.0660
@<TRIPOS>BOND
     1     1    13    1
     2     1    14    1
     3    14     2    1
     4     2    16    1
     5    10     3    1
     6     3    32    1
     7    11     4    1
     8     4    33    1
     9    12     5    1
    10     5    34    1
    11     6    15    1
    12     6    35    1
    13     7    20    1
    14     7    24    1
    15     8    19    1
    16     8    41    1
    17     9    22    2
    18    10    11    1
    19    10    12    1
    20    10    25    1
    21    11    13    1
    22    11    26    1
    23    12    14    1
    24    12    27    1
    25    13    15    1
    26    13    28    1
    27    14    29    1
    28    15    30    1
    29    15    31    1
    30    16    17   ar
    31    16    18   ar
    32    17    19   ar
    33    17    22    1
    34    18    20   ar
    35    18    36    1
    36    19    21   ar
    37    20    21   ar
    38    21    37    1
    39    22    23    1
    40    23    38    1
    41    23    39    1
    42    23    40    1
    43    24    42    1
    44    24    43    1
    45    24    44    1
