@<TRIPOS>MOLECULE
IMPHY011224
 27 32 0 0 0
SMALL
GASTEIGER

@<TRIPOS>ATOM
      1 O           5.3776   -1.4862    0.0000 O.3     1  UNL1       -0.4675
      2 O           2.6079    0.2449    0.0000 O.3     1  UNL1       -0.4348
      3 O           7.1377   -2.4862    0.0000 O.3     1  UNL1       -0.4684
      4 O           2.6079    1.9213    0.0000 O.3     1  UNL1       -0.4347
      5 N           8.0195    2.1178    0.0000 N.4     1  UNL1        0.2990
      6 C           7.1256    1.5831    0.0000 C.3     1  UNL1        0.0235
      7 C           7.1256    0.5831    0.0000 C.ar    1  UNL1        0.0172
      8 C           8.9256    1.6039    0.0000 C.3     1  UNL1        0.1133
      9 C           6.2596    2.0831    0.0000 C.3     1  UNL1        0.0764
     10 C           8.9256    0.5623    0.0000 C.3     1  UNL1        0.0873
     11 C           8.0356    0.0762    0.0000 C.ar    1  UNL1       -0.0123
     12 C           6.2596    0.0831    0.0000 C.ar    1  UNL1        0.0371
     13 C           5.3935    1.5831    0.0000 C.ar    1  UNL1       -0.0135
     14 C           5.3935    0.5831    0.0000 C.ar    1  UNL1        0.0017
     15 C           8.5095    2.9895    0.0000 C.3     1  UNL1        0.1702
     16 C           7.5095    2.9779    0.0000 C.3     1  UNL1        0.1702
     17 C           6.2756   -0.9584    0.0000 C.ar    1  UNL1        0.1724
     18 C           4.4996    0.0484    0.0000 C.ar    1  UNL1        0.0581
     19 C           8.0436   -0.9654    0.0000 C.ar    1  UNL1        0.0359
     20 C           7.1415   -1.4862    0.0000 C.ar    1  UNL1        0.1721
     21 C           4.4996    2.1178    0.0000 C.ar    1  UNL1        0.0361
     22 C           4.4755   -0.9654    0.0000 C.3     1  UNL1        0.2352
     23 C           3.5935    0.5623    0.0000 C.ar    1  UNL1        0.1758
     24 C           3.5935    1.6039    0.0000 C.ar    1  UNL1        0.1759
     25 C           2.0000    1.0831    0.0000 C.3     1  UNL1        0.4294
     26 C           8.0018   -2.9895    0.0000 C.3     1  UNL1        0.2526
     27 H           7.1194    2.3831    0.0000 H       1  UNL1        0.0915
@<TRIPOS>UNITY_ATOM_ATTR
5 1
charge 1
@<TRIPOS>BOND
     1     1    17    1
     2     1    22    1
     3     2    23    1
     4     2    25    1
     5     3    20    1
     6     3    26    1
     7     4    24    1
     8     4    25    1
     9     5     6    1
    10     5     8    1
    11     5    15    1
    12     5    16    1
    13     6     7    1
    14     6     9    1
    15     6    27    1
    16     7    11   ar
    17     7    12   ar
    18     8    10    1
    19     9    13    1
    20    10    11    1
    21    11    19   ar
    22    12    14    1
    23    12    17   ar
    24    13    14   ar
    25    13    21   ar
    26    14    18   ar
    27    17    20   ar
    28    18    22    1
    29    18    23   ar
    30    19    20   ar
    31    21    24   ar
    32    23    24   ar
