@<TRIPOS>MOLECULE
IMPHY014516
 40 43 0 0 0
SMALL
GASTEIGER

@<TRIPOS>ATOM
      1 O           5.4037   -1.6475    0.0000 O.3     1  UNL1       -0.3612
      2 C           3.4538    0.3251    0.0000 C.3     1  UNL1       -0.0265
      3 C           4.5772   -1.0837    0.0000 C.3     1  UNL1        0.1022
      4 C           3.6763   -0.6498    0.0000 C.3     1  UNL1       -0.0030
      5 C           4.0772    1.1069    0.0000 C.3     1  UNL1       -0.0318
      6 C           3.0880    1.2563    0.0000 C.3     1  UNL1       -0.0283
      7 C           5.4782   -0.6498    0.0000 C.3     1  UNL1        0.0967
      8 C           2.9912   -1.3701    0.0000 C.3     1  UNL1       -0.0380
      9 C           5.0772    1.1069    0.0000 C.3     1  UNL1       -0.0467
     10 C           4.4413   -2.0685    0.0000 C.3     1  UNL1       -0.0205
     11 C           5.7007    0.3251    0.0000 C.3     1  UNL1       -0.0210
     12 C           3.4630   -2.2451    0.0000 C.3     1  UNL1       -0.0474
     13 C           3.2371    2.2451    0.0000 C.3     1  UNL1       -0.0593
     14 C           2.1572    0.8909    0.0000 C.3     1  UNL1       -0.0593
     15 C           6.3792   -0.2160    0.0000 C.3     1  UNL1       -0.0331
     16 C           2.0000   -1.2376    0.0000 C.3     1  UNL1       -0.0621
     17 H           2.6416    0.0744    0.0000 H       1  UNL1        0.0313
     18 H           2.8566   -0.4248    0.0000 H       1  UNL1        0.0335
     19 H           4.1409    1.9545    0.0000 H       1  UNL1        0.0309
     20 H           2.7851   -0.7854    0.0000 H       1  UNL1        0.0302
     21 H           5.6358    1.3759    0.0000 H       1  UNL1        0.0269
     22 H           4.9393    1.7114    0.0000 H       1  UNL1        0.0269
     23 H           4.4867   -2.6868    0.0000 H       1  UNL1        0.0294
     24 H           5.0609   -2.0883    0.0000 H       1  UNL1        0.0294
     25 H           6.2593    0.0561    0.0000 H       1  UNL1        0.0294
     26 H           6.0873    0.8098    0.0000 H       1  UNL1        0.0294
     27 H           2.8894   -2.4804    0.0000 H       1  UNL1        0.0269
     28 H           3.6367   -2.8403    0.0000 H       1  UNL1        0.0269
     29 H           3.8501    2.1527    0.0000 H       1  UNL1        0.0235
     30 H           3.3295    2.8582    0.0000 H       1  UNL1        0.0235
     31 H           2.6240    2.3375    0.0000 H       1  UNL1        0.0235
     32 H           1.9306    1.4681    0.0000 H       1  UNL1        0.0235
     33 H           1.5800    0.6644    0.0000 H       1  UNL1        0.0235
     34 H           2.3837    0.3138    0.0000 H       1  UNL1        0.0235
     35 H           6.6482   -0.7746    0.0000 H       1  UNL1        0.0258
     36 H           6.9378    0.0531    0.0000 H       1  UNL1        0.0258
     37 H           6.1102    0.3426    0.0000 H       1  UNL1        0.0258
     38 H           2.0822   -0.6231    0.0000 H       1  UNL1        0.0233
     39 H           1.3855   -1.1555    0.0000 H       1  UNL1        0.0233
     40 H           1.9178   -1.8522    0.0000 H       1  UNL1        0.0233
@<TRIPOS>BOND
     1     1     3    1
     2     1     7    1
     3     2     4    1
     4     2     5    1
     5     2     6    1
     6     2    17    1
     7     3     4    1
     8     3     7    1
     9     3    10    1
    10     4     8    1
    11     4    18    1
    12     5     6    1
    13     5     9    1
    14     5    19    1
    15     6    13    1
    16     6    14    1
    17     7    11    1
    18     7    15    1
    19     8    12    1
    20     8    16    1
    21     8    20    1
    22     9    11    1
    23     9    21    1
    24     9    22    1
    25    10    12    1
    26    10    23    1
    27    10    24    1
    28    11    25    1
    29    11    26    1
    30    12    27    1
    31    12    28    1
    32    13    29    1
    33    13    30    1
    34    13    31    1
    35    14    32    1
    36    14    33    1
    37    14    34    1
    38    15    35    1
    39    15    36    1
    40    15    37    1
    41    16    38    1
    42    16    39    1
    43    16    40    1
