@<TRIPOS>MOLECULE
IMPHY000009
 24 25 0 0 0
SMALL
GASTEIGER

@<TRIPOS>ATOM
      1 C           3.7320   -0.4827    0.0000 C.ar    1  UNL1       -0.0147
      2 C           3.7320    0.5173    0.0000 C.ar    1  UNL1       -0.0147
      3 C           4.6260   -1.0174    0.0000 C.ar    1  UNL1       -0.0427
      4 C           2.8660    1.0173    0.0000 C.ar    1  UNL1       -0.0427
      5 C           2.8660   -0.9827    0.0000 C.ar    1  UNL1       -0.0538
      6 C           4.6260    1.0520    0.0000 C.ar    1  UNL1       -0.0538
      7 C           5.5321   -0.5035    0.0000 C.ar    1  UNL1       -0.0582
      8 C           2.0000    0.5173    0.0000 C.ar    1  UNL1       -0.0582
      9 C           2.0000   -0.4827    0.0000 C.ar    1  UNL1       -0.0609
     10 C           5.5321    0.5381    0.0000 C.ar    1  UNL1       -0.0609
     11 C           4.6144   -2.0173    0.0000 C.3     1  UNL1       -0.0391
     12 C           2.8660    2.0173    0.0000 C.3     1  UNL1       -0.0391
     13 H           2.8660   -1.6027    0.0000 H       1  UNL1        0.0624
     14 H           4.6188    1.6719    0.0000 H       1  UNL1        0.0624
     15 H           6.0678   -0.8156    0.0000 H       1  UNL1        0.0620
     16 H           1.4631    0.8273    0.0000 H       1  UNL1        0.0620
     17 H           1.4631   -0.7927    0.0000 H       1  UNL1        0.0618
     18 H           6.0678    0.8502    0.0000 H       1  UNL1        0.0618
     19 H           3.9945   -2.0101    0.0000 H       1  UNL1        0.0278
     20 H           4.6073   -2.6373    0.0000 H       1  UNL1        0.0278
     21 H           5.2344   -2.0245    0.0000 H       1  UNL1        0.0278
     22 H           3.4860    2.0173    0.0000 H       1  UNL1        0.0278
     23 H           2.8660    2.6373    0.0000 H       1  UNL1        0.0278
     24 H           2.2460    2.0173    0.0000 H       1  UNL1        0.0278
@<TRIPOS>BOND
     1     1     2   ar
     2     1     3   ar
     3     1     5   ar
     4     2     4   ar
     5     2     6   ar
     6     3     7   ar
     7     3    11    1
     8     4     8   ar
     9     4    12    1
    10     5     9   ar
    11     5    13    1
    12     6    10   ar
    13     6    14    1
    14     7    10   ar
    15     7    15    1
    16     8     9   ar
    17     8    16    1
    18     9    17    1
    19    10    18    1
    20    11    19    1
    21    11    20    1
    22    11    21    1
    23    12    22    1
    24    12    23    1
    25    12    24    1
