@<TRIPOS>MOLECULE
IMPHY006317
 37 39 0 0 0
SMALL
GASTEIGER

@<TRIPOS>ATOM
      1 O           2.9204   -1.9803    0.0000 O.2     1  UNL1       -0.2965
      2 C           3.5053    1.0852    0.0000 C.3     1  UNL1       -0.0169
      3 C           4.0445   -0.4202    0.0000 C.3     1  UNL1        0.0321
      4 C           4.0670    0.6582    0.0000 C.3     1  UNL1       -0.0315
      5 C           2.4493   -0.3977    0.0000 C.3     1  UNL1        0.0184
      6 C           2.9885    0.2987    0.0000 C.3     1  UNL1       -0.0399
      7 C           2.7864    1.2873    0.0000 C.3     1  UNL1       -0.0458
      8 C           4.9882    0.5010    0.0000 C.3     1  UNL1       -0.0405
      9 C           5.1158   -0.8621    0.0000 C.3     1  UNL1       -0.0401
     10 C           3.0494   -0.9887    0.0000 C.2     1  UNL1        0.1428
     11 C           2.0000    0.5683    0.0000 C.3     1  UNL1       -0.0430
     12 C           5.5723   -0.1730    0.0000 C.3     1  UNL1       -0.0493
     13 C           3.9510    1.9803    0.0000 C.3     1  UNL1       -0.0584
     14 C           4.1084   -1.4182    0.0000 C.3     1  UNL1       -0.0523
     15 C           5.4789    1.3723    0.0000 C.3     1  UNL1       -0.0621
     16 H           4.3138    1.2269    0.0000 H       1  UNL1        0.0309
     17 H           1.9426   -0.7551    0.0000 H       1  UNL1        0.0378
     18 H           2.9917    0.9187    0.0000 H       1  UNL1        0.0275
     19 H           3.3472   -0.2070    0.0000 H       1  UNL1        0.0275
     20 H           3.0613    1.8430    0.0000 H       1  UNL1        0.0271
     21 H           2.2908    1.6600    0.0000 H       1  UNL1        0.0271
     22 H           5.6050    0.5633    0.0000 H       1  UNL1        0.0301
     23 H           4.8428   -1.4188    0.0000 H       1  UNL1        0.0275
     24 H           5.6537   -1.1704    0.0000 H       1  UNL1        0.0275
     25 H           1.6303    1.0660    0.0000 H       1  UNL1        0.0272
     26 H           1.4673    0.2511    0.0000 H       1  UNL1        0.0272
     27 H           6.0561   -0.5608    0.0000 H       1  UNL1        0.0268
     28 H           6.0022    0.2737    0.0000 H       1  UNL1        0.0268
     29 H           4.5060    1.7040    0.0000 H       1  UNL1        0.0235
     30 H           4.2274    2.5353    0.0000 H       1  UNL1        0.0235
     31 H           3.3960    2.2567    0.0000 H       1  UNL1        0.0235
     32 H           3.4896   -1.4577    0.0000 H       1  UNL1        0.0239
     33 H           4.1480   -2.0369    0.0000 H       1  UNL1        0.0239
     34 H           4.7271   -1.3786    0.0000 H       1  UNL1        0.0239
     35 H           6.0191    1.0681    0.0000 H       1  UNL1        0.0233
     36 H           5.7831    1.9126    0.0000 H       1  UNL1        0.0233
     37 H           4.9386    1.6765    0.0000 H       1  UNL1        0.0233
@<TRIPOS>BOND
     1     1    10    2
     2     2     3    1
     3     2     4    1
     4     2     7    1
     5     2    13    1
     6     3     9    1
     7     3    10    1
     8     3    14    1
     9     4     6    1
    10     4     8    1
    11     4    16    1
    12     5     6    1
    13     5    10    1
    14     5    11    1
    15     5    17    1
    16     6    18    1
    17     6    19    1
    18     7    11    1
    19     7    20    1
    20     7    21    1
    21     8    12    1
    22     8    15    1
    23     8    22    1
    24     9    12    1
    25     9    23    1
    26     9    24    1
    27    11    25    1
    28    11    26    1
    29    12    27    1
    30    12    28    1
    31    13    29    1
    32    13    30    1
    33    13    31    1
    34    14    32    1
    35    14    33    1
    36    14    34    1
    37    15    35    1
    38    15    36    1
    39    15    37    1
