@<TRIPOS>MOLECULE
IMPHY006677
 74 78 0 0 0
SMALL
GASTEIGER

@<TRIPOS>ATOM
      1 O           8.0622   -1.2857    0.0000 O.3     1  UNL1       -0.3302
      2 O           9.7942   -1.2857    0.0000 O.3     1  UNL1       -0.4515
      3 O           6.3301   -3.2857    0.0000 O.3     1  UNL1       -0.3864
      4 O           8.0622   -4.2857    0.0000 O.3     1  UNL1       -0.3864
      5 O           9.7942   -3.2857    0.0000 O.3     1  UNL1       -0.3829
      6 O           5.4641   -1.7857    0.0000 O.3     1  UNL1       -0.4589
      7 O          10.6603    1.2143    0.0000 O.2     1  UNL1       -0.1997
      8 O           4.5981   -0.2857    0.0000 O.2     1  UNL1       -0.2456
      9 O           7.1580    1.2112    0.0000 O.3     1  UNL1       -0.5057
     10 O          12.3923   -2.7857    0.0000 O.3     1  UNL1       -0.4913
     11 O           8.9161    4.2836    0.0000 O.3     1  UNL1       -0.5063
     12 O          14.1244    0.2143    0.0000 O.3     1  UNL1       -0.5032
     13 O          14.1244   -1.7857    0.0000 O.3     1  UNL1       -0.5009
     14 O           2.8660    2.7143    0.0000 O.3     1  UNL1       -0.5068
     15 C           7.1962   -2.7857    0.0000 C.3     1  UNL1        0.1130
     16 C           8.0622   -3.2857    0.0000 C.3     1  UNL1        0.1152
     17 C           7.1962   -1.7857    0.0000 C.3     1  UNL1        0.1250
     18 C           8.9282   -2.7857    0.0000 C.3     1  UNL1        0.1454
     19 C           8.9282   -1.7857    0.0000 C.3     1  UNL1        0.2313
     20 C           6.3301   -1.2857    0.0000 C.3     1  UNL1        0.1215
     21 C           9.7942   -0.2857    0.0000 C.ar    1  UNL1        0.2288
     22 C          10.6603    0.2143    0.0000 C.ar    1  UNL1        0.4047
     23 C           8.9282    0.2143    0.0000 C.ar    1  UNL1        0.0093
     24 C           8.9282    1.2143    0.0000 C.ar    1  UNL1        0.1241
     25 C           4.5981   -1.2857    0.0000 C.2     1  UNL1        0.3320
     26 C          11.5263   -0.2857    0.0000 C.ar    1  UNL1        0.0899
     27 C           9.7942    1.7143    0.0000 C.ar    1  UNL1        0.3708
     28 C           8.0182    1.7212    0.0000 C.ar    1  UNL1        0.1366
     29 C           9.8103    2.7558    0.0000 C.ar    1  UNL1        0.0847
     30 C          11.5263   -1.2857    0.0000 C.ar    1  UNL1        0.0002
     31 C          12.3923    0.2143    0.0000 C.ar    1  UNL1       -0.0000
     32 C           3.7320   -1.7857    0.0000 C.2     1  UNL1        0.0231
     33 C           8.0102    2.7628    0.0000 C.ar    1  UNL1        0.0225
     34 C           8.9122    3.2836    0.0000 C.ar    1  UNL1        0.1293
     35 C          12.3923   -1.7857    0.0000 C.ar    1  UNL1        0.1658
     36 C          13.2583   -0.2857    0.0000 C.ar    1  UNL1        0.1628
     37 C          13.2583   -1.2857    0.0000 C.ar    1  UNL1        0.2008
     38 C           2.8660   -1.2857    0.0000 C.2     1  UNL1       -0.0478
     39 C           2.8660   -0.2857    0.0000 C.ar    1  UNL1       -0.0246
     40 C          13.2583   -3.2857    0.0000 C.3     1  UNL1        0.0790
     41 C           3.7320    0.2143    0.0000 C.ar    1  UNL1       -0.0511
     42 C           2.0000    0.2143    0.0000 C.ar    1  UNL1       -0.0511
     43 C           3.7320    1.2143    0.0000 C.ar    1  UNL1       -0.0196
     44 C           2.0000    1.2143    0.0000 C.ar    1  UNL1       -0.0196
     45 C           2.8660    1.7143    0.0000 C.ar    1  UNL1        0.1169
     46 H           7.1962   -3.4057    0.0000 H       1  UNL1        0.0647
     47 H           8.5991   -3.5957    0.0000 H       1  UNL1        0.0648
     48 H           7.1962   -1.1657    0.0000 H       1  UNL1        0.0658
     49 H           9.4651   -2.4757    0.0000 H       1  UNL1        0.0683
     50 H           8.9282   -1.1657    0.0000 H       1  UNL1        0.1084
     51 H           6.7286   -0.8107    0.0000 H       1  UNL1        0.0725
     52 H           5.9316   -0.8107    0.0000 H       1  UNL1        0.0725
     53 H           6.3301   -3.9057    0.0000 H       1  UNL1        0.2100
     54 H           7.5252   -4.5957    0.0000 H       1  UNL1        0.2100
     55 H           9.7942   -3.9057    0.0000 H       1  UNL1        0.2102
     56 H           8.3913   -0.0957    0.0000 H       1  UNL1        0.0667
     57 H          10.3508    3.0596    0.0000 H       1  UNL1        0.0749
     58 H          10.9893   -1.5957    0.0000 H       1  UNL1        0.0664
     59 H          12.3923    0.8343    0.0000 H       1  UNL1        0.0664
     60 H           3.7320   -2.4057    0.0000 H       1  UNL1        0.0689
     61 H           7.4720    3.0707    0.0000 H       1  UNL1        0.0691
     62 H           2.3291   -1.5957    0.0000 H       1  UNL1        0.0626
     63 H           6.6175    1.5150    0.0000 H       1  UNL1        0.2922
     64 H           8.3804    4.5957    0.0000 H       1  UNL1        0.2921
     65 H          14.1244    0.8343    0.0000 H       1  UNL1        0.2923
     66 H          14.6613   -1.4757    0.0000 H       1  UNL1        0.2924
     67 H          12.9483   -3.8226    0.0000 H       1  UNL1        0.0660
     68 H          13.7953   -3.5957    0.0000 H       1  UNL1        0.0660
     69 H          13.5683   -2.7487    0.0000 H       1  UNL1        0.0660
     70 H           4.2690   -0.0957    0.0000 H       1  UNL1        0.0625
     71 H           1.4631   -0.0957    0.0000 H       1  UNL1        0.0625
     72 H           4.2690    1.5243    0.0000 H       1  UNL1        0.0654
     73 H           1.4631    1.5243    0.0000 H       1  UNL1        0.0654
     74 H           2.3291    3.0243    0.0000 H       1  UNL1        0.2921
@<TRIPOS>UNITY_ATOM_ATTR
7 1
charge 1
@<TRIPOS>BOND
     1     1    17    1
     2     1    19    1
     3    19     2    1
     4     2    21    1
     5    15     3    1
     6     3    53    1
     7    16     4    1
     8     4    54    1
     9    18     5    1
    10     5    55    1
    11     6    20    1
    12     6    25    1
    13     7    22   ar
    14     7    27   ar
    15     8    25    2
    16     9    28    1
    17     9    63    1
    18    10    35    1
    19    10    40    1
    20    11    34    1
    21    11    64    1
    22    12    36    1
    23    12    65    1
    24    13    37    1
    25    13    66    1
    26    14    45    1
    27    14    74    1
    28    15    16    1
    29    15    17    1
    30    15    46    1
    31    16    18    1
    32    16    47    1
    33    17    20    1
    34    17    48    1
    35    18    19    1
    36    18    49    1
    37    19    50    1
    38    20    51    1
    39    20    52    1
    40    21    22   ar
    41    21    23   ar
    42    22    26    1
    43    23    24   ar
    44    23    56    1
    45    24    27   ar
    46    24    28   ar
    47    25    32    1
    48    26    30   ar
    49    26    31   ar
    50    27    29   ar
    51    28    33   ar
    52    29    34   ar
    53    29    57    1
    54    30    35   ar
    55    30    58    1
    56    31    36   ar
    57    31    59    1
    58    32    38    2
    59    32    60    1
    60    33    34   ar
    61    33    61    1
    62    35    37   ar
    63    36    37   ar
    64    38    39    1
    65    38    62    1
    66    39    41   ar
    67    39    42   ar
    68    40    67    1
    69    40    68    1
    70    40    69    1
    71    41    43   ar
    72    41    70    1
    73    42    44   ar
    74    42    71    1
    75    43    45   ar
    76    43    72    1
    77    44    45   ar
    78    44    73    1
