@<TRIPOS>MOLECULE
IMPHY006351
 33 35 0 0 0
SMALL
GASTEIGER

@<TRIPOS>ATOM
      1 O           4.6497    0.5156    0.0000 O.3     1  UNL1       -0.5029
      2 O           2.8680   -0.4948    0.0000 O.3     1  UNL1       -0.4914
      3 O           7.2762    2.0503    0.0000 O.3     1  UNL1       -0.4951
      4 C           5.5320   -1.0190    0.0000 C.ar    1  UNL1        0.0350
      5 C           6.3981   -0.5190    0.0000 C.ar    1  UNL1       -0.0031
      6 C           5.5320   -2.0190    0.0000 C.ar    1  UNL1       -0.0136
      7 C           7.2641   -1.0190    0.0000 C.ar    1  UNL1       -0.0169
      8 C           4.6381   -0.4843    0.0000 C.ar    1  UNL1        0.1669
      9 C           6.3981   -2.5190    0.0000 C.ar    1  UNL1       -0.0533
     10 C           7.2641   -2.0190    0.0000 C.ar    1  UNL1       -0.0534
     11 C           6.3820    0.5225    0.0000 C.ar    1  UNL1       -0.0115
     12 C           4.6381   -2.5536    0.0000 C.ar    1  UNL1       -0.0503
     13 C           8.1741   -0.5121    0.0000 C.ar    1  UNL1       -0.0506
     14 C           3.7320   -0.9981    0.0000 C.ar    1  UNL1        0.1619
     15 C           7.2800    1.0503    0.0000 C.ar    1  UNL1        0.1207
     16 C           3.7320   -2.0398    0.0000 C.ar    1  UNL1       -0.0157
     17 C           8.1821    0.5295    0.0000 C.ar    1  UNL1       -0.0194
     18 C           2.0000   -0.9915    0.0000 C.3     1  UNL1        0.0790
     19 C           8.1403    2.5536    0.0000 C.3     1  UNL1        0.0788
     20 H           6.3981   -3.1390    0.0000 H       1  UNL1        0.0624
     21 H           7.8010   -2.3290    0.0000 H       1  UNL1        0.0624
     22 H           5.8415    0.8263    0.0000 H       1  UNL1        0.0660
     23 H           4.6453   -3.1736    0.0000 H       1  UNL1        0.0625
     24 H           8.7074   -0.8283    0.0000 H       1  UNL1        0.0625
     25 H           3.1963   -2.3519    0.0000 H       1  UNL1        0.0655
     26 H           8.7203    0.8374    0.0000 H       1  UNL1        0.0654
     27 H           4.1164    0.8318    0.0000 H       1  UNL1        0.2923
     28 H           1.6921   -0.4533    0.0000 H       1  UNL1        0.0660
     29 H           1.4619   -1.2994    0.0000 H       1  UNL1        0.0660
     30 H           2.3079   -1.5296    0.0000 H       1  UNL1        0.0660
     31 H           8.4523    2.0179    0.0000 H       1  UNL1        0.0660
     32 H           8.6760    2.8657    0.0000 H       1  UNL1        0.0660
     33 H           7.8282    3.0894    0.0000 H       1  UNL1        0.0660
@<TRIPOS>BOND
     1     1     8    1
     2     1    27    1
     3     2    14    1
     4     2    18    1
     5     3    15    1
     6     3    19    1
     7     4     5   ar
     8     4     6   ar
     9     4     8   ar
    10     5     7   ar
    11     5    11   ar
    12     6     9   ar
    13     6    12   ar
    14     7    10   ar
    15     7    13   ar
    16     8    14   ar
    17     9    10   ar
    18     9    20    1
    19    10    21    1
    20    11    15   ar
    21    11    22    1
    22    12    16   ar
    23    12    23    1
    24    13    17   ar
    25    13    24    1
    26    14    16   ar
    27    15    17   ar
    28    16    25    1
    29    17    26    1
    30    18    28    1
    31    18    29    1
    32    18    30    1
    33    19    31    1
    34    19    32    1
    35    19    33    1
