@<TRIPOS>MOLECULE
IMPHY003232
 33 35 0 0 0
SMALL
GASTEIGER

@<TRIPOS>ATOM
      1 O           7.2901    0.3020    0.0000 O.3     1  UNL1       -0.4778
      2 O           3.7702    0.3020    0.0000 O.2     1  UNL1       -0.4183
      3 O           5.5301    1.2673    0.0000 O.3     1  UNL1       -0.4885
      4 O           2.0000    0.2915    0.0000 O.2     1  UNL1       -0.2452
      5 C           8.1962   -0.2119    0.0000 C.3     1  UNL1        0.1237
      6 C           6.3961   -0.2327    0.0000 C.ar    1  UNL1        0.1740
      7 C           6.3961   -1.2327    0.0000 C.ar    1  UNL1        0.0210
      8 C           8.1962   -1.2535    0.0000 C.2     1  UNL1       -0.0409
      9 C           9.1962   -0.2080    0.0000 C.3     1  UNL1       -0.0215
     10 C           8.6928    0.6561    0.0000 C.3     1  UNL1       -0.0215
     11 C           7.2901   -1.7673    0.0000 C.2     1  UNL1       -0.0512
     12 C           5.5301    0.2673    0.0000 C.ar    1  UNL1        0.2055
     13 C           5.5301   -1.7327    0.0000 C.ar    1  UNL1       -0.0402
     14 C           4.6641   -1.2327    0.0000 C.ar    1  UNL1        0.0221
     15 C           4.6641   -0.2327    0.0000 C.ar    1  UNL1        0.1841
     16 C           3.7702   -1.7673    0.0000 C.ar    1  UNL1       -0.0442
     17 C           2.8641   -1.2535    0.0000 C.ar    1  UNL1        0.0236
     18 C           2.8641   -0.2119    0.0000 C.ar    1  UNL1        0.3373
     19 C           4.6641    1.7673    0.0000 C.3     1  UNL1        0.0791
     20 H           8.7319   -1.5656    0.0000 H       1  UNL1        0.0611
     21 H           9.2310    0.3482    0.0000 H       1  UNL1        0.0271
     22 H           9.0008    1.1942    0.0000 H       1  UNL1        0.0271
     23 H           8.1547    0.9640    0.0000 H       1  UNL1        0.0271
     24 H           9.1985   -0.8280    0.0000 H       1  UNL1        0.0271
     25 H           9.8162   -0.2056    0.0000 H       1  UNL1        0.0271
     26 H           9.1938    0.4120    0.0000 H       1  UNL1        0.0271
     27 H           7.2829   -2.3873    0.0000 H       1  UNL1        0.0623
     28 H           5.5301   -2.3527    0.0000 H       1  UNL1        0.0632
     29 H           3.7773   -2.3873    0.0000 H       1  UNL1        0.0627
     30 H           2.3284   -1.5656    0.0000 H       1  UNL1        0.0689
     31 H           4.9741    2.3043    0.0000 H       1  UNL1        0.0660
     32 H           4.1272    2.0773    0.0000 H       1  UNL1        0.0660
     33 H           4.3541    1.2304    0.0000 H       1  UNL1        0.0660
@<TRIPOS>BOND
     1     1     5    1
     2     1     6    1
     3     2    15   ar
     4     2    18   ar
     5     3    12    1
     6     3    19    1
     7     4    18    2
     8     5     8    1
     9     5     9    1
    10     5    10    1
    11     6     7   ar
    12     6    12   ar
    13     7    11    1
    14     7    13   ar
    15     8    11    2
    16     8    20    1
    17     9    24    1
    18     9    25    1
    19     9    26    1
    20    10    21    1
    21    10    22    1
    22    10    23    1
    23    11    27    1
    24    12    15   ar
    25    13    14   ar
    26    13    28    1
    27    14    15   ar
    28    14    16   ar
    29    16    17   ar
    30    16    29    1
    31    17    18   ar
    32    17    30    1
    33    19    31    1
    34    19    32    1
    35    19    33    1
