@<TRIPOS>MOLECULE
IMPHY002647
 49 49 0 0 0
SMALL
GASTEIGER

@<TRIPOS>ATOM
      1 O           7.7331    1.0000    0.0000 O.2     1  UNL1       -0.2974
      2 O           4.2690    5.0000    0.0000 O.3     1  UNL1       -0.4915
      3 O           2.5369    4.0000    0.0000 O.3     1  UNL1       -0.5033
      4 C           8.5991   -2.5000    0.0000 C.3     1  UNL1       -0.0530
      5 C           7.7331   -2.0000    0.0000 C.3     1  UNL1       -0.0527
      6 C           8.5991   -3.5000    0.0000 C.3     1  UNL1       -0.0531
      7 C           7.7331   -1.0000    0.0000 C.3     1  UNL1       -0.0464
      8 C           9.4651   -4.0000    0.0000 C.3     1  UNL1       -0.0533
      9 C           6.8671   -0.5000    0.0000 C.3     1  UNL1        0.0058
     10 C           9.4651   -5.0000    0.0000 C.3     1  UNL1       -0.0559
     11 C           6.8671    0.5000    0.0000 C.2     1  UNL1        0.1337
     12 C           6.0010    1.0000    0.0000 C.3     1  UNL1        0.0098
     13 C           6.0010    2.0000    0.0000 C.3     1  UNL1       -0.0209
     14 C          10.3312   -5.5000    0.0000 C.3     1  UNL1       -0.0653
     15 C           5.1350    2.5000    0.0000 C.ar    1  UNL1       -0.0433
     16 C           5.1350    3.5000    0.0000 C.ar    1  UNL1       -0.0131
     17 C           4.2690    2.0000    0.0000 C.ar    1  UNL1       -0.0549
     18 C           4.2690    4.0000    0.0000 C.ar    1  UNL1        0.1615
     19 C           3.4030    2.5000    0.0000 C.ar    1  UNL1       -0.0163
     20 C           3.4030    3.5000    0.0000 C.ar    1  UNL1        0.1585
     21 C           5.1350    5.5000    0.0000 C.3     1  UNL1        0.0790
     22 H           9.2097   -2.6077    0.0000 H       1  UNL1        0.0265
     23 H           8.8112   -1.9174    0.0000 H       1  UNL1        0.0265
     24 H           7.1225   -1.8923    0.0000 H       1  UNL1        0.0265
     25 H           7.5210   -2.5826    0.0000 H       1  UNL1        0.0265
     26 H           7.9885   -3.3923    0.0000 H       1  UNL1        0.0265
     27 H           8.3871   -4.0826    0.0000 H       1  UNL1        0.0265
     28 H           8.3437   -1.1077    0.0000 H       1  UNL1        0.0269
     29 H           7.9451   -0.4174    0.0000 H       1  UNL1        0.0269
     30 H          10.0757   -4.1077    0.0000 H       1  UNL1        0.0265
     31 H           9.6772   -3.4174    0.0000 H       1  UNL1        0.0265
     32 H           6.2565   -0.3923    0.0000 H       1  UNL1        0.0342
     33 H           6.6550   -1.0826    0.0000 H       1  UNL1        0.0342
     34 H           8.8546   -4.8923    0.0000 H       1  UNL1        0.0263
     35 H           9.2531   -5.5826    0.0000 H       1  UNL1        0.0263
     36 H           5.3905    1.1077    0.0000 H       1  UNL1        0.0345
     37 H           5.7890    0.4174    0.0000 H       1  UNL1        0.0345
     38 H           6.6116    1.8923    0.0000 H       1  UNL1        0.0317
     39 H           6.2131    2.5826    0.0000 H       1  UNL1        0.0317
     40 H          10.0212   -6.0369    0.0000 H       1  UNL1        0.0230
     41 H          10.8681   -5.8100    0.0000 H       1  UNL1        0.0230
     42 H          10.6412   -4.9631    0.0000 H       1  UNL1        0.0230
     43 H           5.6720    3.8100    0.0000 H       1  UNL1        0.0658
     44 H           4.2690    1.3800    0.0000 H       1  UNL1        0.0621
     45 H           2.8660    2.1900    0.0000 H       1  UNL1        0.0655
     46 H           2.0000    3.6900    0.0000 H       1  UNL1        0.2923
     47 H           5.4450    4.9631    0.0000 H       1  UNL1        0.0660
     48 H           5.6720    5.8100    0.0000 H       1  UNL1        0.0660
     49 H           4.8250    6.0369    0.0000 H       1  UNL1        0.0660
@<TRIPOS>BOND
     1     1    11    2
     2     2    18    1
     3     2    21    1
     4     3    20    1
     5     3    46    1
     6     4     5    1
     7     4     6    1
     8     4    22    1
     9     4    23    1
    10     5     7    1
    11     5    24    1
    12     5    25    1
    13     6     8    1
    14     6    26    1
    15     6    27    1
    16     7     9    1
    17     7    28    1
    18     7    29    1
    19     8    10    1
    20     8    30    1
    21     8    31    1
    22     9    11    1
    23     9    32    1
    24     9    33    1
    25    10    14    1
    26    10    34    1
    27    10    35    1
    28    11    12    1
    29    12    13    1
    30    12    36    1
    31    12    37    1
    32    13    15    1
    33    13    38    1
    34    13    39    1
    35    14    40    1
    36    14    41    1
    37    14    42    1
    38    15    16   ar
    39    15    17   ar
    40    16    18   ar
    41    16    43    1
    42    17    19   ar
    43    17    44    1
    44    18    20   ar
    45    19    20   ar
    46    19    45    1
    47    21    47    1
    48    21    48    1
    49    21    49    1
