@<TRIPOS>MOLECULE
IMPHY004908
 75 74 0 0 0
SMALL
GASTEIGER

@<TRIPOS>ATOM
      1 O          24.1876    0.2500    0.0000 O.3     1  UNL1       -0.3950
      2 O           2.5369    0.7500    0.0000 O.3     1  UNL1       -0.4806
      3 O           3.4030   -0.7500    0.0000 O.2     1  UNL1       -0.2510
      4 C          13.7953    0.2500    0.0000 C.3     1  UNL1       -0.0531
      5 C          12.9292    0.7500    0.0000 C.3     1  UNL1       -0.0531
      6 C          14.6613    0.7500    0.0000 C.3     1  UNL1       -0.0531
      7 C          12.0632    0.2500    0.0000 C.3     1  UNL1       -0.0531
      8 C          15.5273    0.2500    0.0000 C.3     1  UNL1       -0.0531
      9 C          11.1972    0.7500    0.0000 C.3     1  UNL1       -0.0531
     10 C          16.3933    0.7500    0.0000 C.3     1  UNL1       -0.0531
     11 C          10.3312    0.2500    0.0000 C.3     1  UNL1       -0.0531
     12 C          17.2594    0.2500    0.0000 C.3     1  UNL1       -0.0531
     13 C           9.4651    0.7500    0.0000 C.3     1  UNL1       -0.0531
     14 C          18.1254    0.7500    0.0000 C.3     1  UNL1       -0.0531
     15 C           8.5991    0.2500    0.0000 C.3     1  UNL1       -0.0531
     16 C          18.9914    0.2500    0.0000 C.3     1  UNL1       -0.0531
     17 C           7.7331    0.7500    0.0000 C.3     1  UNL1       -0.0531
     18 C          19.8574    0.7500    0.0000 C.3     1  UNL1       -0.0531
     19 C           6.8671    0.2500    0.0000 C.3     1  UNL1       -0.0530
     20 C          20.7235    0.2500    0.0000 C.3     1  UNL1       -0.0530
     21 C           6.0010    0.7500    0.0000 C.3     1  UNL1       -0.0526
     22 C          21.5895    0.7500    0.0000 C.3     1  UNL1       -0.0510
     23 C           5.1350    0.2500    0.0000 C.3     1  UNL1       -0.0430
     24 C          22.4555    0.2500    0.0000 C.3     1  UNL1       -0.0297
     25 C           4.2690    0.7500    0.0000 C.3     1  UNL1        0.0448
     26 C          23.3215    0.7500    0.0000 C.3     1  UNL1        0.0442
     27 C           3.4030    0.2500    0.0000 C.2     1  UNL1        0.3047
     28 H          13.3967   -0.2249    0.0000 H       1  UNL1        0.0265
     29 H          14.1938   -0.2249    0.0000 H       1  UNL1        0.0265
     30 H          13.3278    1.2250    0.0000 H       1  UNL1        0.0265
     31 H          12.5307    1.2250    0.0000 H       1  UNL1        0.0265
     32 H          15.0598    1.2250    0.0000 H       1  UNL1        0.0265
     33 H          14.2628    1.2250    0.0000 H       1  UNL1        0.0265
     34 H          11.6647   -0.2249    0.0000 H       1  UNL1        0.0265
     35 H          12.4617   -0.2249    0.0000 H       1  UNL1        0.0265
     36 H          15.1288   -0.2249    0.0000 H       1  UNL1        0.0265
     37 H          15.9258   -0.2249    0.0000 H       1  UNL1        0.0265
     38 H          11.5957    1.2250    0.0000 H       1  UNL1        0.0265
     39 H          10.7987    1.2250    0.0000 H       1  UNL1        0.0265
     40 H          16.7919    1.2250    0.0000 H       1  UNL1        0.0265
     41 H          15.9948    1.2250    0.0000 H       1  UNL1        0.0265
     42 H           9.9326   -0.2249    0.0000 H       1  UNL1        0.0265
     43 H          10.7297   -0.2249    0.0000 H       1  UNL1        0.0265
     44 H          16.8608   -0.2249    0.0000 H       1  UNL1        0.0265
     45 H          17.6579   -0.2249    0.0000 H       1  UNL1        0.0265
     46 H           9.8637    1.2250    0.0000 H       1  UNL1        0.0265
     47 H           9.0666    1.2250    0.0000 H       1  UNL1        0.0265
     48 H          18.5239    1.2250    0.0000 H       1  UNL1        0.0265
     49 H          17.7269    1.2250    0.0000 H       1  UNL1        0.0265
     50 H           8.2006   -0.2249    0.0000 H       1  UNL1        0.0265
     51 H           8.9976   -0.2249    0.0000 H       1  UNL1        0.0265
     52 H          18.5929   -0.2249    0.0000 H       1  UNL1        0.0265
     53 H          19.3899   -0.2249    0.0000 H       1  UNL1        0.0265
     54 H           8.1316    1.2250    0.0000 H       1  UNL1        0.0265
     55 H           7.3346    1.2250    0.0000 H       1  UNL1        0.0265
     56 H          20.2560    1.2250    0.0000 H       1  UNL1        0.0265
     57 H          19.4589    1.2250    0.0000 H       1  UNL1        0.0265
     58 H           6.4685   -0.2249    0.0000 H       1  UNL1        0.0265
     59 H           7.2656   -0.2249    0.0000 H       1  UNL1        0.0265
     60 H          20.3249   -0.2249    0.0000 H       1  UNL1        0.0265
     61 H          21.1220   -0.2249    0.0000 H       1  UNL1        0.0265
     62 H           6.3996    1.2250    0.0000 H       1  UNL1        0.0265
     63 H           5.6025    1.2250    0.0000 H       1  UNL1        0.0265
     64 H          21.9880    1.2250    0.0000 H       1  UNL1        0.0266
     65 H          21.1910    1.2250    0.0000 H       1  UNL1        0.0266
     66 H           4.7365   -0.2249    0.0000 H       1  UNL1        0.0270
     67 H           5.5335   -0.2249    0.0000 H       1  UNL1        0.0270
     68 H          22.0570   -0.2249    0.0000 H       1  UNL1        0.0287
     69 H          22.8540   -0.2249    0.0000 H       1  UNL1        0.0287
     70 H           4.6675    1.2250    0.0000 H       1  UNL1        0.0377
     71 H           3.8705    1.2250    0.0000 H       1  UNL1        0.0377
     72 H          23.7201    1.2250    0.0000 H       1  UNL1        0.0557
     73 H          22.9230    1.2250    0.0000 H       1  UNL1        0.0557
     74 H          24.7245    0.5600    0.0000 H       1  UNL1        0.2094
     75 H           2.0000    0.4400    0.0000 H       1  UNL1        0.2951
@<TRIPOS>BOND
     1     1    26    1
     2     1    74    1
     3     2    27    1
     4     2    75    1
     5     3    27    2
     6     4     5    1
     7     4     6    1
     8     4    28    1
     9     4    29    1
    10     5     7    1
    11     5    30    1
    12     5    31    1
    13     6     8    1
    14     6    32    1
    15     6    33    1
    16     7     9    1
    17     7    34    1
    18     7    35    1
    19     8    10    1
    20     8    36    1
    21     8    37    1
    22     9    11    1
    23     9    38    1
    24     9    39    1
    25    10    12    1
    26    10    40    1
    27    10    41    1
    28    11    13    1
    29    11    42    1
    30    11    43    1
    31    12    14    1
    32    12    44    1
    33    12    45    1
    34    13    15    1
    35    13    46    1
    36    13    47    1
    37    14    16    1
    38    14    48    1
    39    14    49    1
    40    15    17    1
    41    15    50    1
    42    15    51    1
    43    16    18    1
    44    16    52    1
    45    16    53    1
    46    17    19    1
    47    17    54    1
    48    17    55    1
    49    18    20    1
    50    18    56    1
    51    18    57    1
    52    19    21    1
    53    19    58    1
    54    19    59    1
    55    20    22    1
    56    20    60    1
    57    20    61    1
    58    21    23    1
    59    21    62    1
    60    21    63    1
    61    22    24    1
    62    22    64    1
    63    22    65    1
    64    23    25    1
    65    23    66    1
    66    23    67    1
    67    24    26    1
    68    24    68    1
    69    24    69    1
    70    25    27    1
    71    25    70    1
    72    25    71    1
    73    26    72    1
    74    26    73    1
