@<TRIPOS>MOLECULE
IMPHY009674
 36 37 0 0 0
SMALL
GASTEIGER

@<TRIPOS>ATOM
      1 CL          2.0000    0.5000    0.0000 Cl      1  UNL1       -0.1251
      2 O           7.5870    1.2552    0.0000 O.2     1  UNL1       -0.2915
      3 C           7.8600   -0.5000    0.0000 C.3     1  UNL1        0.0320
      4 C           7.2764   -1.3047    0.0000 C.3     1  UNL1       -0.0148
      5 C           6.3301   -1.0000    0.0000 C.ar    1  UNL1       -0.0354
      6 C           6.3301    0.0000    0.0000 C.ar    1  UNL1        0.0243
      7 C           7.2764    0.3047    0.0000 C.2     1  UNL1        0.1696
      8 C           8.6690   -1.0878    0.0000 C.3     1  UNL1       -0.0524
      9 C           8.6690    0.0878    0.0000 C.3     1  UNL1       -0.0524
     10 C           5.4641    0.5000    0.0000 C.ar    1  UNL1       -0.0362
     11 C           5.4641   -1.5000    0.0000 C.ar    1  UNL1       -0.0547
     12 C           4.5981    0.0000    0.0000 C.ar    1  UNL1       -0.0398
     13 C           4.5981   -1.0000    0.0000 C.ar    1  UNL1       -0.0467
     14 C           3.7320    0.5000    0.0000 C.3     1  UNL1       -0.0137
     15 C           5.4641    1.5000    0.0000 C.3     1  UNL1       -0.0388
     16 C           3.7320   -1.5000    0.0000 C.3     1  UNL1       -0.0394
     17 C           2.8660    0.0000    0.0000 C.3     1  UNL1        0.0266
     18 H           7.0253   -1.8716    0.0000 H       1  UNL1        0.0323
     19 H           7.8137   -1.6140    0.0000 H       1  UNL1        0.0323
     20 H           8.3046   -1.5894    0.0000 H       1  UNL1        0.0239
     21 H           9.1706   -1.4522    0.0000 H       1  UNL1        0.0239
     22 H           9.0334   -0.5862    0.0000 H       1  UNL1        0.0239
     23 H           9.0334   -0.4138    0.0000 H       1  UNL1        0.0239
     24 H           9.1706    0.4522    0.0000 H       1  UNL1        0.0239
     25 H           8.3046    0.5894    0.0000 H       1  UNL1        0.0239
     26 H           5.4641   -2.1200    0.0000 H       1  UNL1        0.0623
     27 H           4.1306    0.9749    0.0000 H       1  UNL1        0.0325
     28 H           3.3335    0.9749    0.0000 H       1  UNL1        0.0325
     29 H           6.0841    1.5000    0.0000 H       1  UNL1        0.0278
     30 H           5.4641    2.1200    0.0000 H       1  UNL1        0.0278
     31 H           4.8441    1.5000    0.0000 H       1  UNL1        0.0278
     32 H           3.4220   -0.9631    0.0000 H       1  UNL1        0.0278
     33 H           3.1951   -1.8100    0.0000 H       1  UNL1        0.0278
     34 H           4.0420   -2.0369    0.0000 H       1  UNL1        0.0278
     35 H           2.4675   -0.4749    0.0000 H       1  UNL1        0.0433
     36 H           3.2646   -0.4749    0.0000 H       1  UNL1        0.0433
@<TRIPOS>BOND
     1     1    17    1
     2     2     7    2
     3     3     4    1
     4     3     7    1
     5     3     8    1
     6     3     9    1
     7     4     5    1
     8     4    18    1
     9     4    19    1
    10     5     6   ar
    11     5    11   ar
    12     6     7    1
    13     6    10   ar
    14     8    20    1
    15     8    21    1
    16     8    22    1
    17     9    23    1
    18     9    24    1
    19     9    25    1
    20    10    12   ar
    21    10    15    1
    22    11    13   ar
    23    11    26    1
    24    12    13   ar
    25    12    14    1
    26    13    16    1
    27    14    17    1
    28    14    27    1
    29    14    28    1
    30    15    29    1
    31    15    30    1
    32    15    31    1
    33    16    32    1
    34    16    33    1
    35    16    34    1
    36    17    35    1
    37    17    36    1
