@<TRIPOS>MOLECULE
IMPHY007170
 23 25 0 0 0
SMALL
GASTEIGER

@<TRIPOS>ATOM
      1 S           5.3781   -0.4333    0.0000 S.2     1  UNL1       -0.0872
      2 S           7.9472    0.4333    0.0000 S.2     1  UNL1       -0.0961
      3 S           3.3090   -1.1056    0.0000 S.2     1  UNL1       -0.0961
      4 C           6.1871    0.1545    0.0000 C.ar    1  UNL1        0.0265
      5 C           4.5691    0.1545    0.0000 C.ar    1  UNL1        0.0265
      6 C           7.1382   -0.1545    0.0000 C.ar    1  UNL1        0.0259
      7 C           3.6180   -0.1545    0.0000 C.ar    1  UNL1        0.0259
      8 C           5.8781    1.1056    0.0000 C.ar    1  UNL1       -0.0458
      9 C           4.8781    1.1056    0.0000 C.ar    1  UNL1       -0.0458
     10 C           7.4472   -1.1056    0.0000 C.ar    1  UNL1       -0.0464
     11 C           2.8090    0.4333    0.0000 C.ar    1  UNL1       -0.0464
     12 C           8.4472   -1.1056    0.0000 C.ar    1  UNL1       -0.0541
     13 C           2.0000   -0.1545    0.0000 C.ar    1  UNL1       -0.0541
     14 C           8.7562   -0.1545    0.0000 C.ar    1  UNL1       -0.0237
     15 C           2.3090   -1.1056    0.0000 C.ar    1  UNL1       -0.0237
     16 H           6.2425    1.6072    0.0000 H       1  UNL1        0.0629
     17 H           4.5137    1.6072    0.0000 H       1  UNL1        0.0629
     18 H           7.0828   -1.6072    0.0000 H       1  UNL1        0.0629
     19 H           2.8090    1.0533    0.0000 H       1  UNL1        0.0629
     20 H           8.8116   -1.6072    0.0000 H       1  UNL1        0.0623
     21 H           1.4103    0.0371    0.0000 H       1  UNL1        0.0623
     22 H           9.3459    0.0371    0.0000 H       1  UNL1        0.0693
     23 H           1.9446   -1.6072    0.0000 H       1  UNL1        0.0693
@<TRIPOS>BOND
     1     1     4   ar
     2     1     5   ar
     3     2     6   ar
     4     2    14   ar
     5     3     7   ar
     6     3    15   ar
     7     4     6    1
     8     4     8   ar
     9     5     7    1
    10     5     9   ar
    11     6    10   ar
    12     7    11   ar
    13     8     9   ar
    14     8    16    1
    15     9    17    1
    16    10    12   ar
    17    10    18    1
    18    11    13   ar
    19    11    19    1
    20    12    14   ar
    21    12    20    1
    22    13    15   ar
    23    13    21    1
    24    14    22    1
    25    15    23    1
