@<TRIPOS>MOLECULE
IMPHY008018
 35 36 0 0 0
SMALL
GASTEIGER

@<TRIPOS>ATOM
      1 O           5.1350   -0.2500    0.0000 O.2     1  UNL1       -0.4217
      2 O           2.5369    1.2500    0.0000 O.3     1  UNL1       -0.5061
      3 O           6.0010    1.2500    0.0000 O.2     1  UNL1       -0.2447
      4 C           4.2690    2.2500    0.0000 C.3     1  UNL1        0.0181
      5 C           4.2690    1.2500    0.0000 C.ar    1  UNL1        0.0876
      6 C           5.2690    2.2500    0.0000 C.3     1  UNL1       -0.0520
      7 C           3.2690    2.2500    0.0000 C.3     1  UNL1       -0.0520
      8 C           4.2690    3.2500    0.0000 C.2     1  UNL1       -0.0808
      9 C           3.4030    0.7500    0.0000 C.ar    1  UNL1        0.1312
     10 C           5.1350    0.7500    0.0000 C.ar    1  UNL1        0.3448
     11 C           3.4030   -0.2500    0.0000 C.ar    1  UNL1        0.0234
     12 C           4.2690   -0.7500    0.0000 C.ar    1  UNL1        0.1425
     13 C           4.2690   -1.7500    0.0000 C.ar    1  UNL1        0.0175
     14 C           5.1350    3.7500    0.0000 C.2     1  UNL1       -0.1018
     15 C           3.4030   -2.2500    0.0000 C.ar    1  UNL1       -0.0511
     16 C           5.1350   -2.2500    0.0000 C.ar    1  UNL1       -0.0511
     17 C           3.4030   -3.2500    0.0000 C.ar    1  UNL1       -0.0611
     18 C           5.1350   -3.2500    0.0000 C.ar    1  UNL1       -0.0611
     19 C           4.2690   -3.7500    0.0000 C.ar    1  UNL1       -0.0617
     20 H           3.2690    2.8700    0.0000 H       1  UNL1        0.0241
     21 H           2.6490    2.2500    0.0000 H       1  UNL1        0.0241
     22 H           5.2690    1.6300    0.0000 H       1  UNL1        0.0241
     23 H           5.8890    2.2500    0.0000 H       1  UNL1        0.0241
     24 H           5.2690    2.8700    0.0000 H       1  UNL1        0.0241
     25 H           3.2690    1.6300    0.0000 H       1  UNL1        0.0241
     26 H           3.7320    3.5600    0.0000 H       1  UNL1        0.0575
     27 H           2.8660   -0.5600    0.0000 H       1  UNL1        0.0691
     28 H           5.6720    3.4400    0.0000 H       1  UNL1        0.0532
     29 H           5.1350    4.3700    0.0000 H       1  UNL1        0.0532
     30 H           2.0000    0.9400    0.0000 H       1  UNL1        0.2922
     31 H           2.8660   -1.9400    0.0000 H       1  UNL1        0.0625
     32 H           5.6720   -1.9400    0.0000 H       1  UNL1        0.0625
     33 H           2.8660   -3.5600    0.0000 H       1  UNL1        0.0618
     34 H           5.6720   -3.5600    0.0000 H       1  UNL1        0.0618
     35 H           4.2690   -4.3700    0.0000 H       1  UNL1        0.0618
@<TRIPOS>BOND
     1     1    10   ar
     2     1    12   ar
     3     2     9    1
     4     2    30    1
     5     3    10    2
     6     4     5    1
     7     4     6    1
     8     4     7    1
     9     4     8    1
    10     5     9   ar
    11     5    10   ar
    12     6    22    1
    13     6    23    1
    14     6    24    1
    15     7    20    1
    16     7    21    1
    17     7    25    1
    18     8    14    2
    19     8    26    1
    20     9    11   ar
    21    11    12   ar
    22    11    27    1
    23    12    13    1
    24    13    15   ar
    25    13    16   ar
    26    14    28    1
    27    14    29    1
    28    15    17   ar
    29    15    31    1
    30    16    18   ar
    31    16    32    1
    32    17    19   ar
    33    17    33    1
    34    18    19   ar
    35    18    34    1
    36    19    35    1
