@<TRIPOS>MOLECULE
IMPHY000676
 51 52 0 0 0
SMALL
GASTEIGER

@<TRIPOS>ATOM
      1 O           4.6660    1.8100    0.0000 O.2     1  UNL1       -0.2872
      2 N           4.6660   -1.1900    0.0000 N.ar    1  UNL1       -0.3577
      3 C           9.8622   -1.1900    0.0000 C.3     1  UNL1       -0.0531
      4 C           8.9962   -0.6900    0.0000 C.3     1  UNL1       -0.0530
      5 C          10.7282   -0.6900    0.0000 C.3     1  UNL1       -0.0531
      6 C           8.1301   -1.1900    0.0000 C.3     1  UNL1       -0.0527
      7 C          11.5942   -1.1900    0.0000 C.3     1  UNL1       -0.0531
      8 C           7.2641   -0.6900    0.0000 C.3     1  UNL1       -0.0477
      9 C          12.4603   -0.6900    0.0000 C.3     1  UNL1       -0.0531
     10 C           6.3981   -1.1900    0.0000 C.3     1  UNL1       -0.0124
     11 C          13.3263   -1.1900    0.0000 C.3     1  UNL1       -0.0533
     12 C           5.5321   -0.6900    0.0000 C.ar    1  UNL1        0.0200
     13 C          14.1923   -0.6900    0.0000 C.3     1  UNL1       -0.0559
     14 C           5.5321    0.3100    0.0000 C.ar    1  UNL1        0.0049
     15 C           3.8000   -0.6900    0.0000 C.ar    1  UNL1        0.0503
     16 C          15.0583   -1.1900    0.0000 C.3     1  UNL1       -0.0653
     17 C           3.8000    0.3100    0.0000 C.ar    1  UNL1        0.0450
     18 C           4.6660    0.8100    0.0000 C.ar    1  UNL1        0.1897
     19 C           2.9061   -1.2247    0.0000 C.ar    1  UNL1       -0.0377
     20 C           2.9061    0.8447    0.0000 C.ar    1  UNL1       -0.0490
     21 C           2.0000   -0.7108    0.0000 C.ar    1  UNL1       -0.0598
     22 C           2.0000    0.3308    0.0000 C.ar    1  UNL1       -0.0610
     23 H           9.4637   -1.6650    0.0000 H       1  UNL1        0.0265
     24 H          10.2607   -1.6650    0.0000 H       1  UNL1        0.0265
     25 H           9.3947   -0.2151    0.0000 H       1  UNL1        0.0265
     26 H           8.5976   -0.2151    0.0000 H       1  UNL1        0.0265
     27 H          11.1267   -0.2151    0.0000 H       1  UNL1        0.0265
     28 H          10.3297   -0.2151    0.0000 H       1  UNL1        0.0265
     29 H           7.7316   -1.6650    0.0000 H       1  UNL1        0.0265
     30 H           8.5287   -1.6650    0.0000 H       1  UNL1        0.0265
     31 H          11.1957   -1.6650    0.0000 H       1  UNL1        0.0265
     32 H          11.9928   -1.6650    0.0000 H       1  UNL1        0.0265
     33 H           7.6626   -0.2151    0.0000 H       1  UNL1        0.0269
     34 H           6.8656   -0.2151    0.0000 H       1  UNL1        0.0269
     35 H          12.8588   -0.2151    0.0000 H       1  UNL1        0.0265
     36 H          12.0617   -0.2151    0.0000 H       1  UNL1        0.0265
     37 H           5.9996   -1.6650    0.0000 H       1  UNL1        0.0328
     38 H           6.7966   -1.6650    0.0000 H       1  UNL1        0.0328
     39 H          12.9278   -1.6650    0.0000 H       1  UNL1        0.0265
     40 H          13.7248   -1.6650    0.0000 H       1  UNL1        0.0265
     41 H          14.5908   -0.2151    0.0000 H       1  UNL1        0.0263
     42 H          13.7938   -0.2151    0.0000 H       1  UNL1        0.0263
     43 H           4.6660   -1.8100    0.0000 H       1  UNL1        0.1656
     44 H           6.0690    0.6200    0.0000 H       1  UNL1        0.0673
     45 H          14.7483   -1.7269    0.0000 H       1  UNL1        0.0230
     46 H          15.5953   -1.5000    0.0000 H       1  UNL1        0.0230
     47 H          15.3683   -0.6531    0.0000 H       1  UNL1        0.0230
     48 H           2.9132   -1.8446    0.0000 H       1  UNL1        0.0638
     49 H           2.9132    1.4646    0.0000 H       1  UNL1        0.0625
     50 H           1.4643   -1.0229    0.0000 H       1  UNL1        0.0618
     51 H           1.4643    0.6429    0.0000 H       1  UNL1        0.0618
@<TRIPOS>BOND
     1     1    18    2
     2     2    12   ar
     3     2    15   ar
     4     2    43    1
     5     3     4    1
     6     3     5    1
     7     3    23    1
     8     3    24    1
     9     4     6    1
    10     4    25    1
    11     4    26    1
    12     5     7    1
    13     5    27    1
    14     5    28    1
    15     6     8    1
    16     6    29    1
    17     6    30    1
    18     7     9    1
    19     7    31    1
    20     7    32    1
    21     8    10    1
    22     8    33    1
    23     8    34    1
    24     9    11    1
    25     9    35    1
    26     9    36    1
    27    10    12    1
    28    10    37    1
    29    10    38    1
    30    11    13    1
    31    11    39    1
    32    11    40    1
    33    12    14   ar
    34    13    16    1
    35    13    41    1
    36    13    42    1
    37    14    18   ar
    38    14    44    1
    39    15    17   ar
    40    15    19   ar
    41    16    45    1
    42    16    46    1
    43    16    47    1
    44    17    18   ar
    45    17    20   ar
    46    19    21   ar
    47    19    48    1
    48    20    22   ar
    49    20    49    1
    50    21    22   ar
    51    21    50    1
    52    22    51    1
