@<TRIPOS>MOLECULE
IMPHY009830
 45 46 0 0 0
SMALL
GASTEIGER

@<TRIPOS>ATOM
      1 O           3.7320   -1.5223    0.0000 O.3     1  UNL1       -0.4606
      2 O           2.0000   -1.5223    0.0000 O.2     1  UNL1       -0.2512
      3 C           4.5981    0.9777    0.0000 C.3     1  UNL1       -0.0097
      4 C           5.4920    1.5124    0.0000 C.3     1  UNL1       -0.0315
      5 C           4.5981   -0.0223    0.0000 C.3     1  UNL1        0.0238
      6 C           6.3981    0.9985    0.0000 C.3     1  UNL1       -0.0457
      7 C           3.7320   -0.5223    0.0000 C.3     1  UNL1        0.1137
      8 C           5.4804    2.5123    0.0000 C.3     1  UNL1       -0.0433
      9 C           5.4920   -0.5569    0.0000 C.2     1  UNL1       -0.0695
     10 C           6.3981   -0.0431    0.0000 C.3     1  UNL1       -0.0313
     11 C           3.7320    1.4777    0.0000 C.2     1  UNL1       -0.0809
     12 C           2.8660   -0.0223    0.0000 C.3     1  UNL1        0.0059
     13 C           2.8660    0.9777    0.0000 C.2     1  UNL1       -0.0727
     14 C           6.3406    3.0223    0.0000 C.3     1  UNL1       -0.0624
     15 C           4.6087    3.0023    0.0000 C.3     1  UNL1       -0.0624
     16 C           5.4804   -1.5569    0.0000 C.2     1  UNL1       -0.0990
     17 C           2.0000    1.4777    0.0000 C.3     1  UNL1       -0.0437
     18 C           2.8660   -2.0223    0.0000 C.2     1  UNL1        0.3042
     19 C           2.8660   -3.0223    0.0000 C.3     1  UNL1        0.0332
     20 H           4.5933    1.5977    0.0000 H       1  UNL1        0.0353
     21 H           6.0259    1.8275    0.0000 H       1  UNL1        0.0309
     22 H           4.5933   -0.6423    0.0000 H       1  UNL1        0.0387
     23 H           7.0089    0.8924    0.0000 H       1  UNL1        0.0271
     24 H           6.6071    1.5822    0.0000 H       1  UNL1        0.0271
     25 H           3.1951   -0.8323    0.0000 H       1  UNL1        0.0743
     26 H           5.4733    3.1323    0.0000 H       1  UNL1        0.0298
     27 H           6.6071   -0.6268    0.0000 H       1  UNL1        0.0310
     28 H           7.0089    0.0630    0.0000 H       1  UNL1        0.0310
     29 H           3.7320    2.0977    0.0000 H       1  UNL1        0.0575
     30 H           2.2554    0.0854    0.0000 H       1  UNL1        0.0346
     31 H           2.6540   -0.6049    0.0000 H       1  UNL1        0.0346
     32 H           6.6568    2.4890    0.0000 H       1  UNL1        0.0232
     33 H           6.8740    3.3385    0.0000 H       1  UNL1        0.0232
     34 H           6.0244    3.5556    0.0000 H       1  UNL1        0.0232
     35 H           4.9125    3.5427    0.0000 H       1  UNL1        0.0232
     36 H           4.0682    3.3060    0.0000 H       1  UNL1        0.0232
     37 H           4.3049    2.4618    0.0000 H       1  UNL1        0.0232
     38 H           4.9400   -1.8606    0.0000 H       1  UNL1        0.0535
     39 H           6.0138   -1.8731    0.0000 H       1  UNL1        0.0535
     40 H           2.3100    2.0146    0.0000 H       1  UNL1        0.0274
     41 H           1.4631    1.7877    0.0000 H       1  UNL1        0.0274
     42 H           1.6900    0.9408    0.0000 H       1  UNL1        0.0274
     43 H           2.2460   -3.0223    0.0000 H       1  UNL1        0.0342
     44 H           2.8660   -3.6423    0.0000 H       1  UNL1        0.0342
     45 H           3.4860   -3.0223    0.0000 H       1  UNL1        0.0342
@<TRIPOS>BOND
     1     7     1    1
     2     1    18    1
     3     2    18    2
     4     3     4    1
     5     3     5    1
     6     3    11    1
     7     3    20    1
     8     4     6    1
     9     4     8    1
    10     4    21    1
    11     5     7    1
    12     5     9    1
    13     5    22    1
    14     6    10    1
    15     6    23    1
    16     6    24    1
    17     7    12    1
    18     7    25    1
    19     8    14    1
    20     8    15    1
    21     8    26    1
    22     9    10    1
    23     9    16    2
    24    10    27    1
    25    10    28    1
    26    11    13    2
    27    11    29    1
    28    12    13    1
    29    12    30    1
    30    12    31    1
    31    13    17    1
    32    14    32    1
    33    14    33    1
    34    14    34    1
    35    15    35    1
    36    15    36    1
    37    15    37    1
    38    16    38    1
    39    16    39    1
    40    17    40    1
    41    17    41    1
    42    17    42    1
    43    18    19    1
    44    19    43    1
    45    19    44    1
    46    19    45    1
