@<TRIPOS>MOLECULE
IMPHY002098
 57 62 0 0 0
SMALL
GASTEIGER

@<TRIPOS>ATOM
      1 O           7.8167    1.2621    0.0000 O.3     1  UNL1       -0.5054
      2 O          10.5160   -1.2621    0.0000 O.3     1  UNL1       -0.5054
      3 O           6.0682    1.2275    0.0000 O.2     1  UNL1       -0.2864
      4 O           6.0682   -2.7725    0.0000 O.2     1  UNL1       -0.2866
      5 O          12.2644   -1.2275    0.0000 O.2     1  UNL1       -0.2864
      6 O          12.2644    2.7725    0.0000 O.2     1  UNL1       -0.2866
      7 O           4.3198    1.2621    0.0000 O.3     1  UNL1       -0.5059
      8 O          14.0128   -1.2621    0.0000 O.3     1  UNL1       -0.5060
      9 O           2.5381   -1.7966    0.0000 O.3     1  UNL1       -0.5066
     10 C           8.7343   -0.2517    0.0000 C.ar    1  UNL1        0.0310
     11 C           9.5984    0.2517    0.0000 C.ar    1  UNL1        0.0310
     12 C           6.9343   -0.2725    0.0000 C.ar    1  UNL1        0.0752
     13 C          11.3984    0.2725    0.0000 C.ar    1  UNL1        0.0752
     14 C           8.7343   -1.2933    0.0000 C.ar    1  UNL1       -0.0384
     15 C           6.9343   -1.2725    0.0000 C.ar    1  UNL1        0.0369
     16 C           9.5984    1.2933    0.0000 C.ar    1  UNL1       -0.0384
     17 C           7.8282    0.2622    0.0000 C.ar    1  UNL1        0.1364
     18 C          10.5044   -0.2622    0.0000 C.ar    1  UNL1        0.1364
     19 C          11.3984    1.2725    0.0000 C.ar    1  UNL1        0.0369
     20 C           7.8282   -1.8071    0.0000 C.ar    1  UNL1       -0.0465
     21 C          10.5044    1.8071    0.0000 C.ar    1  UNL1       -0.0465
     22 C           6.0682    0.2275    0.0000 C.2     1  UNL1        0.2015
     23 C           5.2022   -0.2725    0.0000 C.ar    1  UNL1        0.0748
     24 C           5.2022   -1.2725    0.0000 C.ar    1  UNL1        0.0400
     25 C           6.0682   -1.7725    0.0000 C.2     1  UNL1        0.1949
     26 C          12.2644   -0.2275    0.0000 C.2     1  UNL1        0.2015
     27 C          13.1304    0.2725    0.0000 C.ar    1  UNL1        0.0745
     28 C          12.2644    1.7725    0.0000 C.2     1  UNL1        0.1947
     29 C          13.1304    1.2725    0.0000 C.ar    1  UNL1        0.0366
     30 C           9.5984   -1.7966    0.0000 C.3     1  UNL1       -0.0390
     31 C           8.7343    1.7966    0.0000 C.3     1  UNL1       -0.0390
     32 C           4.3083    0.2622    0.0000 C.ar    1  UNL1        0.1318
     33 C           4.3083   -1.8071    0.0000 C.ar    1  UNL1       -0.0084
     34 C          14.0244   -0.2622    0.0000 C.ar    1  UNL1        0.1283
     35 C          14.0244    1.8071    0.0000 C.ar    1  UNL1       -0.0500
     36 C           3.4022   -1.2933    0.0000 C.ar    1  UNL1        0.1210
     37 C           3.4022   -0.2517    0.0000 C.ar    1  UNL1        0.0221
     38 C          14.9304    0.2517    0.0000 C.ar    1  UNL1       -0.0194
     39 C          14.9304    1.2933    0.0000 C.ar    1  UNL1       -0.0576
     40 H           7.8210   -2.4271    0.0000 H       1  UNL1        0.0628
     41 H          10.5116    2.4271    0.0000 H       1  UNL1        0.0628
     42 H           9.2863   -2.3324    0.0000 H       1  UNL1        0.0278
     43 H          10.1341   -2.1087    0.0000 H       1  UNL1        0.0278
     44 H           9.9105   -1.2609    0.0000 H       1  UNL1        0.0278
     45 H           9.0464    2.3324    0.0000 H       1  UNL1        0.0278
     46 H           8.1985    2.1087    0.0000 H       1  UNL1        0.0278
     47 H           8.4222    1.2609    0.0000 H       1  UNL1        0.0278
     48 H           4.3154   -2.4271    0.0000 H       1  UNL1        0.0661
     49 H          14.0172    2.4271    0.0000 H       1  UNL1        0.0625
     50 H           7.2762    1.5659    0.0000 H       1  UNL1        0.2922
     51 H          11.0565   -1.5659    0.0000 H       1  UNL1        0.2922
     52 H           2.8665    0.0604    0.0000 H       1  UNL1        0.0691
     53 H          15.4662   -0.0604    0.0000 H       1  UNL1        0.0654
     54 H          15.4662    1.6054    0.0000 H       1  UNL1        0.0619
     55 H           3.7865    1.5783    0.0000 H       1  UNL1        0.2922
     56 H          14.5461   -1.5783    0.0000 H       1  UNL1        0.2922
     57 H           2.0000   -1.4887    0.0000 H       1  UNL1        0.2921
@<TRIPOS>BOND
     1     1    17    1
     2     1    50    1
     3     2    18    1
     4     2    51    1
     5     3    22    2
     6     4    25    2
     7     5    26    2
     8     6    28    2
     9     7    32    1
    10     7    55    1
    11     8    34    1
    12     8    56    1
    13     9    36    1
    14     9    57    1
    15    10    11    1
    16    10    14   ar
    17    10    17   ar
    18    11    16   ar
    19    11    18   ar
    20    12    15   ar
    21    12    17   ar
    22    12    22    1
    23    13    18   ar
    24    13    19   ar
    25    13    26    1
    26    14    20   ar
    27    14    30    1
    28    15    20   ar
    29    15    25    1
    30    16    21   ar
    31    16    31    1
    32    19    21   ar
    33    19    28    1
    34    20    40    1
    35    21    41    1
    36    22    23    1
    37    23    24   ar
    38    23    32   ar
    39    24    25    1
    40    24    33   ar
    41    26    27    1
    42    27    29   ar
    43    27    34   ar
    44    28    29    1
    45    29    35   ar
    46    30    42    1
    47    30    43    1
    48    30    44    1
    49    31    45    1
    50    31    46    1
    51    31    47    1
    52    32    37   ar
    53    33    36   ar
    54    33    48    1
    55    34    38   ar
    56    35    39   ar
    57    35    49    1
    58    36    37   ar
    59    37    52    1
    60    38    39   ar
    61    38    53    1
    62    39    54    1
