@<TRIPOS>MOLECULE
IMPHY015349
 19 18 0 0 0
SMALL
GASTEIGER

@<TRIPOS>ATOM
      1 S           7.1962   -0.2500    0.0000 S.2     1  UNL1        0.0203
      2 N           5.4641    0.7500    0.0000 N.2     1  UNL1       -0.2346
      3 C           2.8660    0.2500    0.0000 C.3     1  UNL1       -0.0450
      4 C           3.7320    0.7500    0.0000 C.3     1  UNL1       -0.0303
      5 C           2.0000    0.7500    0.0000 C.3     1  UNL1       -0.0626
      6 C           2.8660   -0.7500    0.0000 C.3     1  UNL1       -0.0626
      7 C           4.5981    0.2500    0.0000 C.3     1  UNL1        0.0498
      8 C           6.3301    0.2500    0.0000 C.1     1  UNL1        0.0358
      9 H           2.8660    0.8700    0.0000 H       1  UNL1        0.0296
     10 H           4.1306    1.2250    0.0000 H       1  UNL1        0.0286
     11 H           3.3335    1.2250    0.0000 H       1  UNL1        0.0286
     12 H           2.3100    1.2869    0.0000 H       1  UNL1        0.0232
     13 H           1.4631    1.0600    0.0000 H       1  UNL1        0.0232
     14 H           1.6900    0.2131    0.0000 H       1  UNL1        0.0232
     15 H           2.2460   -0.7500    0.0000 H       1  UNL1        0.0232
     16 H           2.8660   -1.3700    0.0000 H       1  UNL1        0.0232
     17 H           3.4860   -0.7500    0.0000 H       1  UNL1        0.0232
     18 H           4.1996   -0.2249    0.0000 H       1  UNL1        0.0516
     19 H           4.9966   -0.2249    0.0000 H       1  UNL1        0.0516
@<TRIPOS>BOND
     1     1     8    2
     2     2     7    1
     3     2     8    2
     4     3     4    1
     5     3     5    1
     6     3     6    1
     7     3     9    1
     8     4     7    1
     9     4    10    1
    10     4    11    1
    11     5    12    1
    12     5    13    1
    13     5    14    1
    14     6    15    1
    15     6    16    1
    16     6    17    1
    17     7    18    1
    18     7    19    1
