@<TRIPOS>MOLECULE
IMPHY017757
 19 18 0 0 0
SMALL
GASTEIGER

@<TRIPOS>ATOM
      1 O           4.5981    0.2500    0.0000 O.2     1  UNL1       -0.4998
      2 C           2.8660    0.2500    0.0000 C.3     1  UNL1       -0.0125
      3 C           3.7320    0.7500    0.0000 C.3     1  UNL1        0.0910
      4 C           2.0000    0.7500    0.0000 C.3     1  UNL1       -0.0596
      5 C           2.8660   -0.7500    0.0000 C.3     1  UNL1       -0.0596
      6 C           5.4641    0.7500    0.0000 C.2     1  UNL1        0.0774
      7 C           6.3301    0.2500    0.0000 C.2     1  UNL1       -0.0642
      8 H           2.8660    0.8700    0.0000 H       1  UNL1        0.0328
      9 H           4.1306    1.2250    0.0000 H       1  UNL1        0.0699
     10 H           3.3335    1.2250    0.0000 H       1  UNL1        0.0699
     11 H           2.3100    1.2869    0.0000 H       1  UNL1        0.0233
     12 H           1.4631    1.0600    0.0000 H       1  UNL1        0.0233
     13 H           1.6900    0.2131    0.0000 H       1  UNL1        0.0233
     14 H           2.2460   -0.7500    0.0000 H       1  UNL1        0.0233
     15 H           2.8660   -1.3700    0.0000 H       1  UNL1        0.0233
     16 H           3.4860   -0.7500    0.0000 H       1  UNL1        0.0233
     17 H           5.4641    1.3700    0.0000 H       1  UNL1        0.1017
     18 H           6.3301   -0.3700    0.0000 H       1  UNL1        0.0565
     19 H           6.8671    0.5600    0.0000 H       1  UNL1        0.0565
@<TRIPOS>BOND
     1     1     3    1
     2     1     6    1
     3     2     3    1
     4     2     4    1
     5     2     5    1
     6     2     8    1
     7     3     9    1
     8     3    10    1
     9     4    11    1
    10     4    12    1
    11     4    13    1
    12     5    14    1
    13     5    15    1
    14     5    16    1
    15     6     7    2
    16     6    17    1
    17     7    18    1
    18     7    19    1
