@<TRIPOS>MOLECULE
IMPHY016057
 39 41 0 0 0
SMALL
GASTEIGER

@<TRIPOS>ATOM
      1 C           4.7967    0.6943    0.0000 C.3     1  UNL1       -0.0283
      2 C           3.8387    0.2854    0.0000 C.3     1  UNL1       -0.0338
      3 C           5.6057    0.1066    0.0000 C.3     1  UNL1       -0.0080
      4 C           6.1057    1.6454    0.0000 C.3     1  UNL1       -0.0191
      5 C           5.1057    1.6454    0.0000 C.3     1  UNL1       -0.0426
      6 C           4.5796    1.6198    0.0000 C.3     1  UNL1       -0.0431
      7 C           3.7218   -0.7497    0.0000 C.3     1  UNL1       -0.0355
      8 C           6.4147    0.6943    0.0000 C.2     1  UNL1       -0.0673
      9 C           5.5128   -0.9309    0.0000 C.3     1  UNL1       -0.0434
     10 C           4.5646   -1.3619    0.0000 C.3     1  UNL1       -0.0489
     11 C           6.4147   -0.4812    0.0000 C.3     1  UNL1       -0.0556
     12 C           2.8068   -1.1529    0.0000 C.3     1  UNL1       -0.0436
     13 C           7.3658    0.3853    0.0000 C.2     1  UNL1       -0.0987
     14 C           2.6984   -2.1470    0.0000 C.3     1  UNL1       -0.0624
     15 C           2.0000   -0.5620    0.0000 C.3     1  UNL1       -0.0624
     16 H           4.0111    1.0188    0.0000 H       1  UNL1        0.0312
     17 H           3.0291    0.5444    0.0000 H       1  UNL1        0.0307
     18 H           6.6053    2.3331    0.0000 H       1  UNL1        0.0346
     19 H           5.1705    2.2620    0.0000 H       1  UNL1        0.0274
     20 H           4.4993    1.7743    0.0000 H       1  UNL1        0.0274
     21 H           4.6770    2.2321    0.0000 H       1  UNL1        0.0274
     22 H           3.9935    1.8221    0.0000 H       1  UNL1        0.0274
     23 H           3.6559   -1.3661    0.0000 H       1  UNL1        0.0306
     24 H           5.6690   -1.5309    0.0000 H       1  UNL1        0.0274
     25 H           6.1307   -0.8797    0.0000 H       1  UNL1        0.0274
     26 H           4.1197   -1.7938    0.0000 H       1  UNL1        0.0268
     27 H           4.9139   -1.8741    0.0000 H       1  UNL1        0.0268
     28 H           6.0503   -0.9828    0.0000 H       1  UNL1        0.0238
     29 H           6.9163   -0.8457    0.0000 H       1  UNL1        0.0238
     30 H           6.7792    0.0204    0.0000 H       1  UNL1        0.0238
     31 H           2.2394   -1.4029    0.0000 H       1  UNL1        0.0298
     32 H           7.4947   -0.2211    0.0000 H       1  UNL1        0.0535
     33 H           7.8266    0.8002    0.0000 H       1  UNL1        0.0535
     34 H           2.0820   -2.0798    0.0000 H       1  UNL1        0.0232
     35 H           2.6312   -2.7633    0.0000 H       1  UNL1        0.0232
     36 H           3.3147   -2.2142    0.0000 H       1  UNL1        0.0232
     37 H           2.3664   -0.0618    0.0000 H       1  UNL1        0.0232
     38 H           1.4998   -0.1956    0.0000 H       1  UNL1        0.0232
     39 H           1.6336   -1.0622    0.0000 H       1  UNL1        0.0232
@<TRIPOS>BOND
     1     1     2    1
     2     1     3    1
     3     1     5    1
     4     1    16    1
     5     2     6    1
     6     2     7    1
     7     2    17    1
     8     3     8    1
     9     3     9    1
    10     3    11    1
    11     4     5    1
    12     4     6    1
    13     4     8    1
    14     4    18    1
    15     5    19    1
    16     5    20    1
    17     6    21    1
    18     6    22    1
    19     7    10    1
    20     7    12    1
    21     7    23    1
    22     8    13    2
    23     9    10    1
    24     9    24    1
    25     9    25    1
    26    10    26    1
    27    10    27    1
    28    11    28    1
    29    11    29    1
    30    11    30    1
    31    12    14    1
    32    12    15    1
    33    12    31    1
    34    13    32    1
    35    13    33    1
    36    14    34    1
    37    14    35    1
    38    14    36    1
    39    15    37    1
    40    15    38    1
    41    15    39    1
