@<TRIPOS>MOLECULE
IMPHY000384
 75 79 0 0 0
SMALL
GASTEIGER

@<TRIPOS>ATOM
      1 O           6.9245   -1.6383    0.0000 O.3     1  UNL1       -0.3313
      2 O           5.1370    2.3485    0.0000 O.3     1  UNL1       -0.3313
      3 O           8.6565   -1.6383    0.0000 O.3     1  UNL1       -0.4515
      4 O           6.0203    0.8586    0.0000 O.3     1  UNL1       -0.4598
      5 O           6.9245   -4.6383    0.0000 O.3     1  UNL1       -0.3864
      6 O           5.1924   -3.6383    0.0000 O.3     1  UNL1       -0.3865
      7 O           2.5564    0.8185    0.0000 O.3     1  UNL1       -0.3864
      8 O           2.5333    2.8184    0.0000 O.3     1  UNL1       -0.3865
      9 O           8.6565   -3.6383    0.0000 O.3     1  UNL1       -0.3829
     10 O           4.2999   -0.1614    0.0000 O.3     1  UNL1       -0.3829
     11 O           4.3264   -2.1383    0.0000 O.3     1  UNL1       -0.3924
     12 O           3.3819    4.3283    0.0000 O.3     1  UNL1       -0.3924
     13 O           9.5226    0.8617    0.0000 O.2     1  UNL1       -0.1997
     14 O           7.7784    3.9310    0.0000 O.3     1  UNL1       -0.5063
     15 O          12.9867   -0.1383    0.0000 O.3     1  UNL1       -0.5032
     16 O          11.2546   -3.1383    0.0000 O.3     1  UNL1       -0.5032
     17 O          12.9867   -2.1383    0.0000 O.3     1  UNL1       -0.5009
     18 C           6.9245   -3.6383    0.0000 C.3     1  UNL1        0.1152
     19 C           6.0584   -3.1383    0.0000 C.3     1  UNL1        0.1120
     20 C           3.4166    1.3285    0.0000 C.3     1  UNL1        0.1152
     21 C           3.4051    2.3284    0.0000 C.3     1  UNL1        0.1120
     22 C           7.7905   -3.1383    0.0000 C.3     1  UNL1        0.1454
     23 C           4.2884    0.8386    0.0000 C.3     1  UNL1        0.1454
     24 C           6.0584   -2.1383    0.0000 C.3     1  UNL1        0.1140
     25 C           4.2652    2.8384    0.0000 C.3     1  UNL1        0.1140
     26 C           7.7905   -2.1383    0.0000 C.3     1  UNL1        0.2312
     27 C           5.1486    1.3485    0.0000 C.3     1  UNL1        0.2308
     28 C           5.1924   -1.6383    0.0000 C.3     1  UNL1        0.0731
     29 C           4.2537    3.8384    0.0000 C.3     1  UNL1        0.0731
     30 C           8.6565   -0.6383    0.0000 C.ar    1  UNL1        0.2288
     31 C           6.8805    1.3686    0.0000 C.ar    1  UNL1        0.1437
     32 C           7.7905    0.8617    0.0000 C.ar    1  UNL1        0.1245
     33 C           7.7905   -0.1383    0.0000 C.ar    1  UNL1        0.0093
     34 C           9.5226   -0.1383    0.0000 C.ar    1  UNL1        0.4047
     35 C           8.6565    1.3617    0.0000 C.ar    1  UNL1        0.3708
     36 C           6.8725    2.4102    0.0000 C.ar    1  UNL1        0.0229
     37 C           8.6726    2.4032    0.0000 C.ar    1  UNL1        0.0847
     38 C           7.7746    2.9310    0.0000 C.ar    1  UNL1        0.1293
     39 C          10.3886   -0.6383    0.0000 C.ar    1  UNL1        0.0899
     40 C          10.3886   -1.6383    0.0000 C.ar    1  UNL1       -0.0000
     41 C          11.2546   -0.1383    0.0000 C.ar    1  UNL1       -0.0000
     42 C          12.1206   -0.6383    0.0000 C.ar    1  UNL1        0.1628
     43 C          11.2546   -2.1383    0.0000 C.ar    1  UNL1        0.1628
     44 C          12.1206   -1.6383    0.0000 C.ar    1  UNL1        0.2006
     45 H           7.4614   -3.9483    0.0000 H       1  UNL1        0.0648
     46 H           5.5215   -2.8283    0.0000 H       1  UNL1        0.0647
     47 H           3.4238    0.7086    0.0000 H       1  UNL1        0.0648
     48 H           2.8718    2.0123    0.0000 H       1  UNL1        0.0647
     49 H           8.3274   -2.8283    0.0000 H       1  UNL1        0.0683
     50 H           4.8289    0.5348    0.0000 H       1  UNL1        0.0683
     51 H           6.0584   -1.5183    0.0000 H       1  UNL1        0.0647
     52 H           4.7986    3.1546    0.0000 H       1  UNL1        0.0647
     53 H           7.7905   -1.5183    0.0000 H       1  UNL1        0.1084
     54 H           5.6819    1.6647    0.0000 H       1  UNL1        0.1084
     55 H           5.5910   -1.1633    0.0000 H       1  UNL1        0.0584
     56 H           4.7939   -1.1633    0.0000 H       1  UNL1        0.0584
     57 H           4.8655    3.7378    0.0000 H       1  UNL1        0.0584
     58 H           4.4590    4.4234    0.0000 H       1  UNL1        0.0584
     59 H           6.3875   -4.9483    0.0000 H       1  UNL1        0.2100
     60 H           5.1924   -4.2583    0.0000 H       1  UNL1        0.2100
     61 H           2.0160    1.1223    0.0000 H       1  UNL1        0.2100
     62 H           2.0000    2.5022    0.0000 H       1  UNL1        0.2100
     63 H           8.6565   -4.2583    0.0000 H       1  UNL1        0.2102
     64 H           3.7666   -0.4776    0.0000 H       1  UNL1        0.2102
     65 H           7.2536   -0.4483    0.0000 H       1  UNL1        0.0667
     66 H           3.7895   -1.8283    0.0000 H       1  UNL1        0.2095
     67 H           3.3748    4.9483    0.0000 H       1  UNL1        0.2095
     68 H           6.3343    2.7181    0.0000 H       1  UNL1        0.0691
     69 H           9.2131    2.7070    0.0000 H       1  UNL1        0.0749
     70 H           9.8516   -1.9483    0.0000 H       1  UNL1        0.0664
     71 H          11.2546    0.4817    0.0000 H       1  UNL1        0.0664
     72 H           8.3165    4.2389    0.0000 H       1  UNL1        0.2921
     73 H          12.9867    0.4817    0.0000 H       1  UNL1        0.2923
     74 H          11.7915   -3.4483    0.0000 H       1  UNL1        0.2923
     75 H          13.5236   -1.8283    0.0000 H       1  UNL1        0.2924
@<TRIPOS>UNITY_ATOM_ATTR
13 1
charge 1
@<TRIPOS>BOND
     1     1    24    1
     2     1    26    1
     3     2    25    1
     4     2    27    1
     5    26     3    1
     6     3    30    1
     7    27     4    1
     8     4    31    1
     9    18     5    1
    10     5    59    1
    11    19     6    1
    12     6    60    1
    13    20     7    1
    14     7    61    1
    15    21     8    1
    16     8    62    1
    17    22     9    1
    18     9    63    1
    19    23    10    1
    20    10    64    1
    21    11    28    1
    22    11    66    1
    23    12    29    1
    24    12    67    1
    25    13    34   ar
    26    13    35   ar
    27    14    38    1
    28    14    72    1
    29    15    42    1
    30    15    73    1
    31    16    43    1
    32    16    74    1
    33    17    44    1
    34    17    75    1
    35    18    19    1
    36    18    22    1
    37    18    45    1
    38    19    24    1
    39    19    46    1
    40    20    21    1
    41    20    23    1
    42    20    47    1
    43    21    25    1
    44    21    48    1
    45    22    26    1
    46    22    49    1
    47    23    27    1
    48    23    50    1
    49    24    28    1
    50    24    51    1
    51    25    29    1
    52    25    52    1
    53    26    53    1
    54    27    54    1
    55    28    55    1
    56    28    56    1
    57    29    57    1
    58    29    58    1
    59    30    33   ar
    60    30    34   ar
    61    31    32   ar
    62    31    36   ar
    63    32    33   ar
    64    32    35   ar
    65    33    65    1
    66    34    39    1
    67    35    37   ar
    68    36    38   ar
    69    36    68    1
    70    37    38   ar
    71    37    69    1
    72    39    40   ar
    73    39    41   ar
    74    40    43   ar
    75    40    70    1
    76    41    42   ar
    77    41    71    1
    78    42    44   ar
    79    43    44   ar
