@<TRIPOS>MOLECULE
IMPHY010402
 66 65 0 0 0
SMALL
GASTEIGER

@<TRIPOS>ATOM
      1 O           8.0622   -1.0950    0.0000 O.3     1  UNL1       -0.3918
      2 O          20.1865   -0.0950    0.0000 O.3     1  UNL1       -0.4806
      3 O          19.3205    1.4050    0.0000 O.2     1  UNL1       -0.2510
      4 C           8.9282    0.4050    0.0000 C.3     1  UNL1       -0.0269
      5 C           8.0622   -0.0950    0.0000 C.3     1  UNL1        0.0553
      6 C           9.7942   -0.0950    0.0000 C.3     1  UNL1       -0.0507
      7 C          10.6603    0.4050    0.0000 C.3     1  UNL1       -0.0530
      8 C          11.5263   -0.0950    0.0000 C.3     1  UNL1       -0.0531
      9 C           7.1962    0.4050    0.0000 C.3     1  UNL1       -0.0269
     10 C          12.3923    0.4050    0.0000 C.3     1  UNL1       -0.0531
     11 C          13.2583   -0.0950    0.0000 C.3     1  UNL1       -0.0531
     12 C           6.3301   -0.0950    0.0000 C.3     1  UNL1       -0.0507
     13 C          14.1244    0.4050    0.0000 C.3     1  UNL1       -0.0531
     14 C           5.4641    0.4050    0.0000 C.3     1  UNL1       -0.0530
     15 C          14.9904   -0.0950    0.0000 C.3     1  UNL1       -0.0531
     16 C          15.8564    0.4050    0.0000 C.3     1  UNL1       -0.0530
     17 C           4.5981   -0.0950    0.0000 C.3     1  UNL1       -0.0531
     18 C          16.7224   -0.0950    0.0000 C.3     1  UNL1       -0.0526
     19 C           3.7320    0.4050    0.0000 C.3     1  UNL1       -0.0533
     20 C          17.5885    0.4050    0.0000 C.3     1  UNL1       -0.0430
     21 C           2.8660   -0.0950    0.0000 C.3     1  UNL1       -0.0559
     22 C          18.4545   -0.0950    0.0000 C.3     1  UNL1        0.0448
     23 C           2.0000    0.4050    0.0000 C.3     1  UNL1       -0.0653
     24 C          19.3205    0.4050    0.0000 C.2     1  UNL1        0.3047
     25 H           9.3267    0.8799    0.0000 H       1  UNL1        0.0290
     26 H           8.5297    0.8799    0.0000 H       1  UNL1        0.0290
     27 H           7.5252   -0.4050    0.0000 H       1  UNL1        0.0593
     28 H           9.3957   -0.5699    0.0000 H       1  UNL1        0.0266
     29 H          10.1928   -0.5699    0.0000 H       1  UNL1        0.0266
     30 H          11.0588    0.8799    0.0000 H       1  UNL1        0.0265
     31 H          10.2617    0.8799    0.0000 H       1  UNL1        0.0265
     32 H          11.1278   -0.5699    0.0000 H       1  UNL1        0.0265
     33 H          11.9248   -0.5699    0.0000 H       1  UNL1        0.0265
     34 H           7.5947    0.8799    0.0000 H       1  UNL1        0.0290
     35 H           6.7976    0.8799    0.0000 H       1  UNL1        0.0290
     36 H          12.7908    0.8799    0.0000 H       1  UNL1        0.0265
     37 H          11.9938    0.8799    0.0000 H       1  UNL1        0.0265
     38 H          12.8598   -0.5699    0.0000 H       1  UNL1        0.0265
     39 H          13.6569   -0.5699    0.0000 H       1  UNL1        0.0265
     40 H           5.9316   -0.5699    0.0000 H       1  UNL1        0.0266
     41 H           6.7287   -0.5699    0.0000 H       1  UNL1        0.0266
     42 H          14.5229    0.8799    0.0000 H       1  UNL1        0.0265
     43 H          13.7258    0.8799    0.0000 H       1  UNL1        0.0265
     44 H           5.8626    0.8799    0.0000 H       1  UNL1        0.0265
     45 H           5.0656    0.8799    0.0000 H       1  UNL1        0.0265
     46 H          14.5919   -0.5699    0.0000 H       1  UNL1        0.0265
     47 H          15.3889   -0.5699    0.0000 H       1  UNL1        0.0265
     48 H          16.2549    0.8799    0.0000 H       1  UNL1        0.0265
     49 H          15.4579    0.8799    0.0000 H       1  UNL1        0.0265
     50 H           4.1996   -0.5699    0.0000 H       1  UNL1        0.0265
     51 H           4.9966   -0.5699    0.0000 H       1  UNL1        0.0265
     52 H          16.3239   -0.5699    0.0000 H       1  UNL1        0.0265
     53 H          17.1210   -0.5699    0.0000 H       1  UNL1        0.0265
     54 H           4.1306    0.8799    0.0000 H       1  UNL1        0.0265
     55 H           3.3335    0.8799    0.0000 H       1  UNL1        0.0265
     56 H          17.9870    0.8799    0.0000 H       1  UNL1        0.0270
     57 H          17.1899    0.8799    0.0000 H       1  UNL1        0.0270
     58 H           7.5252   -1.4050    0.0000 H       1  UNL1        0.2098
     59 H           2.4675   -0.5699    0.0000 H       1  UNL1        0.0263
     60 H           3.2646   -0.5699    0.0000 H       1  UNL1        0.0263
     61 H          18.0560   -0.5699    0.0000 H       1  UNL1        0.0377
     62 H          18.8530   -0.5699    0.0000 H       1  UNL1        0.0377
     63 H           2.3100    0.9419    0.0000 H       1  UNL1        0.0230
     64 H           1.4631    0.7150    0.0000 H       1  UNL1        0.0230
     65 H           1.6900   -0.1319    0.0000 H       1  UNL1        0.0230
     66 H          20.7235    0.2150    0.0000 H       1  UNL1        0.2951
@<TRIPOS>BOND
     1     1     5    1
     2     1    58    1
     3     2    24    1
     4     2    66    1
     5     3    24    2
     6     4     5    1
     7     4     6    1
     8     4    25    1
     9     4    26    1
    10     5     9    1
    11     5    27    1
    12     6     7    1
    13     6    28    1
    14     6    29    1
    15     7     8    1
    16     7    30    1
    17     7    31    1
    18     8    10    1
    19     8    32    1
    20     8    33    1
    21     9    12    1
    22     9    34    1
    23     9    35    1
    24    10    11    1
    25    10    36    1
    26    10    37    1
    27    11    13    1
    28    11    38    1
    29    11    39    1
    30    12    14    1
    31    12    40    1
    32    12    41    1
    33    13    15    1
    34    13    42    1
    35    13    43    1
    36    14    17    1
    37    14    44    1
    38    14    45    1
    39    15    16    1
    40    15    46    1
    41    15    47    1
    42    16    18    1
    43    16    48    1
    44    16    49    1
    45    17    19    1
    46    17    50    1
    47    17    51    1
    48    18    20    1
    49    18    52    1
    50    18    53    1
    51    19    21    1
    52    19    54    1
    53    19    55    1
    54    20    22    1
    55    20    56    1
    56    20    57    1
    57    21    23    1
    58    21    59    1
    59    21    60    1
    60    22    24    1
    61    22    61    1
    62    22    62    1
    63    23    63    1
    64    23    64    1
    65    23    65    1
