@<TRIPOS>MOLECULE
IMPHY002447
 75 80 0 0 0
SMALL
GASTEIGER

@<TRIPOS>ATOM
      1 O           2.2505    0.2394    0.0000 O.3     1  UNL1       -0.3915
      2 O           2.8823   -3.4787    0.0000 O.3     1  UNL1       -0.3918
      3 N           9.1562    1.4884    0.0000 N.3     1  UNL1       -0.2986
      4 C           5.2923   -0.0656    0.0000 C.3     1  UNL1       -0.0319
      5 C           4.8871    0.8422    0.0000 C.3     1  UNL1       -0.0323
      6 C           6.4902    1.0093    0.0000 C.3     1  UNL1       -0.0334
      7 C           5.6242    1.5093    0.0000 C.3     1  UNL1       -0.0347
      8 C           4.6974   -0.9131    0.0000 C.3     1  UNL1       -0.0236
      9 C           6.2810    0.0374    0.0000 C.3     1  UNL1       -0.0460
     10 C           7.3562    1.5093    0.0000 C.3     1  UNL1       -0.0220
     11 C           7.3562    2.5093    0.0000 C.3     1  UNL1       -0.0328
     12 C           3.6667   -0.8137    0.0000 C.3     1  UNL1       -0.0070
     13 C           3.8590    0.9654    0.0000 C.3     1  UNL1       -0.0232
     14 C           5.6242    2.5093    0.0000 C.3     1  UNL1       -0.0494
     15 C           3.2447    0.1319    0.0000 C.3     1  UNL1        0.0589
     16 C           6.4902    3.0093    0.0000 C.3     1  UNL1       -0.0493
     17 C           8.2502    3.0439    0.0000 C.3     1  UNL1       -0.0251
     18 C           5.1596   -1.8876    0.0000 C.3     1  UNL1       -0.0447
     19 C           8.2502    0.9746    0.0000 C.3     1  UNL1        0.0025
     20 C           9.1562    2.5301    0.0000 C.3     1  UNL1        0.0133
     21 C           3.0267   -1.6819    0.0000 C.3     1  UNL1       -0.0212
     22 C           5.6927   -1.0091    0.0000 C.3     1  UNL1       -0.0590
     23 C           4.5399   -2.7704    0.0000 C.3     1  UNL1       -0.0263
     24 C           3.4663   -2.6669    0.0000 C.3     1  UNL1        0.0556
     25 C          10.0874    3.0870    0.0000 C.3     1  UNL1       -0.0368
     26 C          10.0874    0.9315    0.0000 C.3     1  UNL1        0.0018
     27 C           8.2386    4.0439    0.0000 C.3     1  UNL1       -0.0607
     28 C          11.0312    1.4668    0.0000 C.3     1  UNL1       -0.0310
     29 C          11.0312    2.5518    0.0000 C.3     1  UNL1       -0.0479
     30 C          11.8953    0.9634    0.0000 C.3     1  UNL1       -0.0613
     31 H           5.7229   -0.7984    0.0000 H       1  UNL1        0.0309
     32 H           4.6293    1.6521    0.0000 H       1  UNL1        0.0307
     33 H           7.1772    0.5088    0.0000 H       1  UNL1        0.0307
     34 H           4.8472    1.8540    0.0000 H       1  UNL1        0.0306
     35 H           6.2801   -0.5826    0.0000 H       1  UNL1        0.0271
     36 H           6.8974   -0.0286    0.0000 H       1  UNL1        0.0271
     37 H           7.3497    0.6593    0.0000 H       1  UNL1        0.0319
     38 H           7.3497    3.3592    0.0000 H       1  UNL1        0.0307
     39 H           2.8216   -0.7223    0.0000 H       1  UNL1        0.0332
     40 H           4.0371    1.5593    0.0000 H       1  UNL1        0.0293
     41 H           3.3044    1.2424    0.0000 H       1  UNL1        0.0293
     42 H           5.4121    3.0919    0.0000 H       1  UNL1        0.0268
     43 H           5.0136    2.4016    0.0000 H       1  UNL1        0.0268
     44 H           2.8797   -0.3693    0.0000 H       1  UNL1        0.0596
     45 H           6.8887    3.4842    0.0000 H       1  UNL1        0.0268
     46 H           6.0917    3.4842    0.0000 H       1  UNL1        0.0268
     47 H           8.7841    3.3591    0.0000 H       1  UNL1        0.0316
     48 H           5.5986   -2.3254    0.0000 H       1  UNL1        0.0271
     49 H           5.6660   -1.5300    0.0000 H       1  UNL1        0.0271
     50 H           7.8456    0.5048    0.0000 H       1  UNL1        0.0429
     51 H           8.6438    0.4956    0.0000 H       1  UNL1        0.0429
     52 H           9.1464    3.3800    0.0000 H       1  UNL1        0.0465
     53 H           2.5980   -1.2341    0.0000 H       1  UNL1        0.0294
     54 H           2.5122   -2.0278    0.0000 H       1  UNL1        0.0294
     55 H           5.6332   -1.6262    0.0000 H       1  UNL1        0.0235
     56 H           6.3099   -1.0686    0.0000 H       1  UNL1        0.0235
     57 H           5.7522   -0.3920    0.0000 H       1  UNL1        0.0235
     58 H           4.3756   -3.3683    0.0000 H       1  UNL1        0.0290
     59 H           5.1008   -3.0345    0.0000 H       1  UNL1        0.0290
     60 H           2.8495   -2.6038    0.0000 H       1  UNL1        0.0593
     61 H          10.4810    3.5660    0.0000 H       1  UNL1        0.0280
     62 H           9.6828    3.5568    0.0000 H       1  UNL1        0.0280
     63 H           9.6828    0.4617    0.0000 H       1  UNL1        0.0429
     64 H          10.4810    0.4525    0.0000 H       1  UNL1        0.0429
     65 H           8.8585    4.0510    0.0000 H       1  UNL1        0.0233
     66 H           8.2314    4.6638    0.0000 H       1  UNL1        0.0233
     67 H           7.6186    4.0367    0.0000 H       1  UNL1        0.0233
     68 H           2.0000    0.8065    0.0000 H       1  UNL1        0.2098
     69 H          11.5687    1.7757    0.0000 H       1  UNL1        0.0310
     70 H          11.6420    2.4457    0.0000 H       1  UNL1        0.0269
     71 H          11.2402    3.1354    0.0000 H       1  UNL1        0.0269
     72 H           3.1372   -4.0439    0.0000 H       1  UNL1        0.2098
     73 H          11.5832    0.4277    0.0000 H       1  UNL1        0.0233
     74 H          12.4310    0.6514    0.0000 H       1  UNL1        0.0233
     75 H          12.2073    1.4992    0.0000 H       1  UNL1        0.0233
@<TRIPOS>BOND
     1    15     1    1
     2     1    68    1
     3    24     2    1
     4     2    72    1
     5     3    19    1
     6     3    20    1
     7     3    26    1
     8     4     5    1
     9     4     8    1
    10     4     9    1
    11     4    31    1
    12     5     7    1
    13     5    13    1
    14     5    32    1
    15     6     7    1
    16     6     9    1
    17     6    10    1
    18     6    33    1
    19     7    14    1
    20     7    34    1
    21     8    12    1
    22     8    18    1
    23     8    22    1
    24     9    35    1
    25     9    36    1
    26    10    11    1
    27    10    19    1
    28    10    37    1
    29    11    16    1
    30    11    17    1
    31    11    38    1
    32    12    15    1
    33    12    21    1
    34    12    39    1
    35    13    15    1
    36    13    40    1
    37    13    41    1
    38    14    16    1
    39    14    42    1
    40    14    43    1
    41    15    44    1
    42    16    45    1
    43    16    46    1
    44    17    20    1
    45    17    27    1
    46    17    47    1
    47    18    23    1
    48    18    48    1
    49    18    49    1
    50    19    50    1
    51    19    51    1
    52    20    25    1
    53    20    52    1
    54    21    24    1
    55    21    53    1
    56    21    54    1
    57    22    55    1
    58    22    56    1
    59    22    57    1
    60    23    24    1
    61    23    58    1
    62    23    59    1
    63    24    60    1
    64    25    29    1
    65    25    61    1
    66    25    62    1
    67    26    28    1
    68    26    63    1
    69    26    64    1
    70    27    65    1
    71    27    66    1
    72    27    67    1
    73    28    29    1
    74    28    30    1
    75    28    69    1
    76    29    70    1
    77    29    71    1
    78    30    73    1
    79    30    74    1
    80    30    75    1
