@<TRIPOS>MOLECULE
IMPHY008920
 34 33 0 0 0
SMALL
GASTEIGER

@<TRIPOS>ATOM
      1 O           5.4641   -0.7500    0.0000 O.3     1  UNL1       -0.4565
      2 O           4.5981   -2.2500    0.0000 O.2     1  UNL1       -0.2511
      3 C           3.7320   -0.7500    0.0000 C.3     1  UNL1        0.0236
      4 C           4.5981   -0.2500    0.0000 C.3     1  UNL1        0.1299
      5 C           3.2320    0.1160    0.0000 C.3     1  UNL1       -0.0527
      6 C           4.2320   -1.6160    0.0000 C.3     1  UNL1       -0.0527
      7 C           2.8660   -1.2500    0.0000 C.2     1  UNL1       -0.0817
      8 C           4.5981    0.7500    0.0000 C.2     1  UNL1       -0.0444
      9 C           5.4641    1.2500    0.0000 C.2     1  UNL1       -0.0762
     10 C           2.0000   -0.7500    0.0000 C.2     1  UNL1       -0.1020
     11 C           5.4641    2.2500    0.0000 C.3     1  UNL1       -0.0439
     12 C           6.3301    0.7500    0.0000 C.3     1  UNL1       -0.0439
     13 C           5.4641   -1.7500    0.0000 C.2     1  UNL1        0.3045
     14 C           6.3301   -2.2500    0.0000 C.3     1  UNL1        0.0333
     15 H           4.5981   -0.8700    0.0000 H       1  UNL1        0.0788
     16 H           3.6951   -1.9260    0.0000 H       1  UNL1        0.0239
     17 H           4.5420   -2.1530    0.0000 H       1  UNL1        0.0239
     18 H           4.7690   -1.3060    0.0000 H       1  UNL1        0.0239
     19 H           3.7690    0.4260    0.0000 H       1  UNL1        0.0239
     20 H           2.9220    0.6530    0.0000 H       1  UNL1        0.0239
     21 H           2.6951   -0.1940    0.0000 H       1  UNL1        0.0239
     22 H           2.8660   -1.8700    0.0000 H       1  UNL1        0.0573
     23 H           4.0611    1.0600    0.0000 H       1  UNL1        0.0608
     24 H           2.0000   -0.1300    0.0000 H       1  UNL1        0.0532
     25 H           1.4631   -1.0600    0.0000 H       1  UNL1        0.0532
     26 H           6.0841    2.2500    0.0000 H       1  UNL1        0.0274
     27 H           5.4641    2.8700    0.0000 H       1  UNL1        0.0274
     28 H           4.8441    2.2500    0.0000 H       1  UNL1        0.0274
     29 H           6.0201    0.2131    0.0000 H       1  UNL1        0.0274
     30 H           6.8671    0.4400    0.0000 H       1  UNL1        0.0274
     31 H           6.6401    1.2869    0.0000 H       1  UNL1        0.0274
     32 H           6.0201   -2.7869    0.0000 H       1  UNL1        0.0342
     33 H           6.8671   -2.5600    0.0000 H       1  UNL1        0.0342
     34 H           6.6401   -1.7131    0.0000 H       1  UNL1        0.0342
@<TRIPOS>BOND
     1     1     4    1
     2     1    13    1
     3     2    13    2
     4     3     4    1
     5     3     5    1
     6     3     6    1
     7     3     7    1
     8     4     8    1
     9     4    15    1
    10     5    19    1
    11     5    20    1
    12     5    21    1
    13     6    16    1
    14     6    17    1
    15     6    18    1
    16     7    10    2
    17     7    22    1
    18     8     9    2
    19     8    23    1
    20     9    11    1
    21     9    12    1
    22    10    24    1
    23    10    25    1
    24    11    26    1
    25    11    27    1
    26    11    28    1
    27    12    29    1
    28    12    30    1
    29    12    31    1
    30    13    14    1
    31    14    32    1
    32    14    33    1
    33    14    34    1
