@<TRIPOS>MOLECULE
IMPHY006068
 39 39 0 0 0
SMALL
GASTEIGER

@<TRIPOS>ATOM
      1 O           2.8660    0.5000    0.0000 O.3     1  UNL1       -0.5062
      2 O           6.3301   -2.5000    0.0000 O.2     1  UNL1       -0.2957
      3 C           4.5981    1.5000    0.0000 C.3     1  UNL1       -0.0092
      4 C           2.8660   -1.5000    0.0000 C.3     1  UNL1       -0.0092
      5 C           4.5981    0.5000    0.0000 C.ar    1  UNL1        0.0004
      6 C           3.7320   -1.0000    0.0000 C.ar    1  UNL1        0.0004
      7 C           3.7320    0.0000    0.0000 C.ar    1  UNL1        0.1242
      8 C           4.5981    2.5000    0.0000 C.3     1  UNL1       -0.0559
      9 C           5.5981    1.5000    0.0000 C.3     1  UNL1       -0.0559
     10 C           3.5981    1.5000    0.0000 C.3     1  UNL1       -0.0559
     11 C           2.0000   -2.0000    0.0000 C.3     1  UNL1       -0.0559
     12 C           3.3660   -2.3660    0.0000 C.3     1  UNL1       -0.0559
     13 C           2.3660   -0.6340    0.0000 C.3     1  UNL1       -0.0559
     14 C           5.4641    0.0000    0.0000 C.ar    1  UNL1       -0.0444
     15 C           4.5981   -1.5000    0.0000 C.ar    1  UNL1       -0.0444
     16 C           5.4641   -1.0000    0.0000 C.ar    1  UNL1        0.0150
     17 C           6.3301   -1.5000    0.0000 C.2     1  UNL1        0.1502
     18 H           5.2181    2.5000    0.0000 H       1  UNL1        0.0238
     19 H           3.5981    2.1200    0.0000 H       1  UNL1        0.0238
     20 H           2.9781    1.5000    0.0000 H       1  UNL1        0.0238
     21 H           3.5981    0.8800    0.0000 H       1  UNL1        0.0238
     22 H           5.5981    0.8800    0.0000 H       1  UNL1        0.0238
     23 H           6.2181    1.5000    0.0000 H       1  UNL1        0.0238
     24 H           5.5981    2.1200    0.0000 H       1  UNL1        0.0238
     25 H           4.5981    3.1200    0.0000 H       1  UNL1        0.0238
     26 H           3.9781    2.5000    0.0000 H       1  UNL1        0.0238
     27 H           2.9030   -0.3240    0.0000 H       1  UNL1        0.0238
     28 H           2.0560   -0.0970    0.0000 H       1  UNL1        0.0238
     29 H           1.8291   -0.9440    0.0000 H       1  UNL1        0.0238
     30 H           2.8291   -2.6760    0.0000 H       1  UNL1        0.0238
     31 H           3.6760   -2.9030    0.0000 H       1  UNL1        0.0238
     32 H           3.9030   -2.0560    0.0000 H       1  UNL1        0.0238
     33 H           1.6900   -1.4631    0.0000 H       1  UNL1        0.0238
     34 H           1.4631   -2.3100    0.0000 H       1  UNL1        0.0238
     35 H           2.3100   -2.5369    0.0000 H       1  UNL1        0.0238
     36 H           6.0010    0.3100    0.0000 H       1  UNL1        0.0628
     37 H           4.5981   -2.1200    0.0000 H       1  UNL1        0.0628
     38 H           2.8660    1.1200    0.0000 H       1  UNL1        0.2922
     39 H           6.8671   -1.1900    0.0000 H       1  UNL1        0.1081
@<TRIPOS>BOND
     1     1     7    1
     2     1    38    1
     3     2    17    2
     4     3     5    1
     5     3     8    1
     6     3     9    1
     7     3    10    1
     8     4     6    1
     9     4    11    1
    10     4    12    1
    11     4    13    1
    12     5     7   ar
    13     5    14   ar
    14     6     7   ar
    15     6    15   ar
    16     8    18    1
    17     8    25    1
    18     8    26    1
    19     9    22    1
    20     9    23    1
    21     9    24    1
    22    10    19    1
    23    10    20    1
    24    10    21    1
    25    11    33    1
    26    11    34    1
    27    11    35    1
    28    12    30    1
    29    12    31    1
    30    12    32    1
    31    13    27    1
    32    13    28    1
    33    13    29    1
    34    14    16   ar
    35    14    36    1
    36    15    16   ar
    37    15    37    1
    38    16    17    1
    39    17    39    1
