@<TRIPOS>MOLECULE
IMPHY010695
 35 38 0 0 0
SMALL
GASTEIGER

@<TRIPOS>ATOM
      1 C          11.8546    0.0000    0.0000 C.3     1  UNL1        0.0043
      2 C          11.8416   -1.3374    0.0000 C.3     1  UNL1        0.0183
      3 C          12.9842   -2.0126    0.0000 C.3     1  UNL1        0.0043
      4 C          10.6730   -1.9866    0.0000 C.2     1  UNL1       -0.0446
      5 C           9.5304   -1.2984    0.0000 C.2     1  UNL1       -0.0091
      6 C          10.6601   -3.3110    0.0000 C.3     1  UNL1        0.0217
      7 C           9.5045   -3.9602    0.0000 C.3     1  UNL1        0.0001
      8 C           9.4915   -5.2976    0.0000 C.3     1  UNL1       -0.0221
      9 C           9.9329   -6.5570    0.0000 C.3     1  UNL1       -0.0045
     10 C           8.3229   -5.9468    0.0000 C.3     1  UNL1       -0.0221
     11 C           9.0890   -7.0375    0.0000 C.3     1  UNL1       -0.0042
     12 C           8.3229   -8.0892    0.0000 C.3     1  UNL1       -0.0000
     13 C           7.0634   -7.6737    0.0000 C.3     1  UNL1        0.0034
     14 C           7.1933   -8.9981    0.0000 C.3     1  UNL1        0.0003
     15 C           5.9468   -8.3099    0.0000 C.3     1  UNL1        0.0180
     16 C           5.9468   -9.6603    0.0000 C.3     1  UNL1        0.0040
     17 C           4.7652  -10.3225    0.0000 C.3     1  UNL1        0.0007
     18 C           3.6096   -9.6603    0.0000 C.3     1  UNL1        0.0054
     19 C           2.4800  -10.3225    0.0000 C.3     1  UNL1        0.0227
     20 C           1.6230  -11.3482    0.0000 C.3     1  UNL1        0.0021
     21 C           3.3370  -11.3352    0.0000 C.3     1  UNL1        0.0021
     22 C           1.3114   -9.6603    0.0000 C.3     1  UNL1        0.1084
     23 C           1.3114   -8.3099    0.0000 C.3     1  UNL1        0.0267
     24 C           2.4800   -7.6737    0.0000 C.3     1  UNL1        0.0059
     25 C           3.6096   -8.3099    0.0000 C.3     1  UNL1        0.0150
     26 C           3.6096   -6.9725    0.0000 C.3     1  UNL1        0.0040
     27 C           4.7652   -7.6737    0.0000 C.2     1  UNL1       -0.0494
     28 C           4.7652   -6.3623    0.0000 C.2     1  UNL1       -0.0346
     29 C           5.9468   -5.6871    0.0000 C.3     1  UNL1        0.0251
     30 C           7.0634   -6.3623    0.0000 C.3     1  UNL1        0.0007
     31 C           7.2192   -5.0379    0.0000 C.3     1  UNL1        0.0000
     32 O           0.0000   -9.4395    0.0000 O.3     1  UNL1       -0.2299
     33 H           0.8699  -10.9197    0.0000 H       1  UNL1        0.0640
     34 H           8.3878   -7.2842    0.0000 H       1  UNL1        0.0316
     35 H          10.8029   -5.0768    0.0000 H       1  UNL1        0.0316
@<TRIPOS>BOND
     1     1     2    1
     2     2     3    1
     3     2     4    1
     4     4     5    2
     5     4     6    1
     6     6     7    1
     7     7     8    1
     8     8     9    1
     9     8    10    1
    10     8    35    1
    11    10    11    1
    12    10    30    1
    13    10    34    1
    14    11    12    1
    15    12    13    1
    16    13    14    1
    17    13    15    1
    18    13    30    1
    19    15    16    1
    20    15    27    1
    21    16    17    1
    22    17    18    1
    23    18    19    1
    24    18    25    1
    25    19    20    1
    26    19    21    1
    27    19    22    1
    28    22    23    1
    29    22    32    1
    30    22    33    1
    31    23    24    1
    32    24    25    1
    33    25    26    1
    34    25    27    1
    35    27    28    2
    36    28    29    1
    37    29    30    1
    38    30    31    1
