@<TRIPOS>MOLECULE
IMPHY005411
 50 54 0 0 0
SMALL
GASTEIGER

@<TRIPOS>ATOM
      1 O           6.4039   -2.6256    0.0000 O.3     1  UNL1       -0.3856
      2 O           2.8641    2.4510    0.0000 O.3     1  UNL1       -0.4914
      3 O           9.0462    0.9300    0.0000 O.3     1  UNL1       -0.4951
      4 O           4.6380    3.4751    0.0000 O.3     1  UNL1       -0.5033
      5 N           3.7320   -2.1426    0.0000 N.3     1  UNL1       -0.2924
      6 C           4.6341   -2.6634    0.0000 C.3     1  UNL1        0.0409
      7 C           4.4162   -3.6757    0.0000 C.3     1  UNL1       -0.0335
      8 C           5.5322   -2.1357    0.0000 C.3     1  UNL1        0.0965
      9 C           2.9643   -2.8374    0.0000 C.3     1  UNL1       -0.0003
     10 C           3.3863   -3.7830    0.0000 C.3     1  UNL1       -0.0387
     11 C           3.7401   -1.1010    0.0000 C.3     1  UNL1        0.0254
     12 C           5.5161   -1.0942    0.0000 C.ar    1  UNL1       -0.0050
     13 C           4.6501   -0.5942    0.0000 C.ar    1  UNL1       -0.0193
     14 C           6.3821   -0.5942    0.0000 C.ar    1  UNL1       -0.0111
     15 C           4.6501    0.4058    0.0000 C.ar    1  UNL1       -0.0089
     16 C           6.3821    0.4058    0.0000 C.ar    1  UNL1       -0.0062
     17 C           5.5161    0.9058    0.0000 C.ar    1  UNL1       -0.0061
     18 C           7.2761   -1.1288    0.0000 C.ar    1  UNL1       -0.0502
     19 C           3.7401    0.9127    0.0000 C.ar    1  UNL1       -0.0083
     20 C           7.2761    0.9405    0.0000 C.ar    1  UNL1       -0.0117
     21 C           5.5322    1.9474    0.0000 C.ar    1  UNL1       -0.0082
     22 C           3.7320    1.9543    0.0000 C.ar    1  UNL1        0.1619
     23 C           8.1821   -0.6150    0.0000 C.ar    1  UNL1       -0.0194
     24 C           8.1821    0.4267    0.0000 C.ar    1  UNL1        0.1207
     25 C           4.6341    2.4751    0.0000 C.ar    1  UNL1        0.1591
     26 C           2.0000    1.9476    0.0000 C.3     1  UNL1        0.0790
     27 C           9.9142    0.4333    0.0000 C.3     1  UNL1        0.0788
     28 H           5.3231   -3.1613    0.0000 H       1  UNL1        0.0491
     29 H           4.4153   -4.2957    0.0000 H       1  UNL1        0.0282
     30 H           5.0327   -3.7417    0.0000 H       1  UNL1        0.0282
     31 H           6.0649   -1.8184    0.0000 H       1  UNL1        0.0659
     32 H           2.5989   -2.3366    0.0000 H       1  UNL1        0.0427
     33 H           2.4278   -3.1482    0.0000 H       1  UNL1        0.0427
     34 H           2.7967   -3.9748    0.0000 H       1  UNL1        0.0278
     35 H           3.5150   -4.3895    0.0000 H       1  UNL1        0.0278
     36 H           3.5355   -0.5157    0.0000 H       1  UNL1        0.0476
     37 H           3.1284   -1.2024    0.0000 H       1  UNL1        0.0476
     38 H           6.4111   -3.2456    0.0000 H       1  UNL1        0.2103
     39 H           7.2689   -1.7488    0.0000 H       1  UNL1        0.0625
     40 H           3.2068    0.5965    0.0000 H       1  UNL1        0.0661
     41 H           7.2689    1.5605    0.0000 H       1  UNL1        0.0660
     42 H           6.0726    2.2511    0.0000 H       1  UNL1        0.0661
     43 H           8.7179   -0.9270    0.0000 H       1  UNL1        0.0654
     44 H           5.1761    3.7830    0.0000 H       1  UNL1        0.2923
     45 H           1.6879    2.4834    0.0000 H       1  UNL1        0.0660
     46 H           1.4643    1.6356    0.0000 H       1  UNL1        0.0660
     47 H           2.3121    1.4119    0.0000 H       1  UNL1        0.0660
     48 H           9.6062   -0.1048    0.0000 H       1  UNL1        0.0660
     49 H          10.4523    0.1254    0.0000 H       1  UNL1        0.0660
     50 H          10.2221    0.9715    0.0000 H       1  UNL1        0.0660
@<TRIPOS>BOND
     1     8     1    1
     2     1    38    1
     3     2    22    1
     4     2    26    1
     5     3    24    1
     6     3    27    1
     7     4    25    1
     8     4    44    1
     9     5     6    1
    10     5     9    1
    11     5    11    1
    12     6     7    1
    13     6     8    1
    14     6    28    1
    15     7    10    1
    16     7    29    1
    17     7    30    1
    18     8    12    1
    19     8    31    1
    20     9    10    1
    21     9    32    1
    22     9    33    1
    23    10    34    1
    24    10    35    1
    25    11    13    1
    26    11    36    1
    27    11    37    1
    28    12    13   ar
    29    12    14   ar
    30    13    15   ar
    31    14    16   ar
    32    14    18   ar
    33    15    17   ar
    34    15    19   ar
    35    16    17   ar
    36    16    20   ar
    37    17    21   ar
    38    18    23   ar
    39    18    39    1
    40    19    22   ar
    41    19    40    1
    42    20    24   ar
    43    20    41    1
    44    21    25   ar
    45    21    42    1
    46    22    25   ar
    47    23    24   ar
    48    23    43    1
    49    26    45    1
    50    26    46    1
    51    26    47    1
    52    27    48    1
    53    27    49    1
    54    27    50    1
