@<TRIPOS>MOLECULE
IMPHY000008
 113 119 0 0 0
SMALL
GASTEIGER

@<TRIPOS>ATOM
      1 O          15.1835    1.5782    0.0000 O.3     1  UNL1       -0.3601
      2 O          14.3037   -1.9188    0.0000 O.3     1  UNL1       -0.4571
      3 O          12.5755   -0.9122    0.0000 O.3     1  UNL1       -0.4574
      4 O           9.7942    2.6509    0.0000 O.3     1  UNL1       -0.3480
      5 O          16.6524   -2.3790    0.0000 O.2     1  UNL1       -0.2974
      6 O          15.8004   -2.7907    0.0000 O.2     1  UNL1       -0.2512
      7 O          13.4358   -2.4155    0.0000 O.2     1  UNL1       -0.2512
      8 O           8.0622    2.6509    0.0000 O.3     1  UNL1       -0.3456
      9 O           8.0622   -0.3491    0.0000 O.3     1  UNL1       -0.3770
     10 O           6.3301    0.6509    0.0000 O.3     1  UNL1       -0.3403
     11 O           5.4641    2.1509    0.0000 O.3     1  UNL1       -0.3431
     12 O           4.5981   -0.3491    0.0000 O.3     1  UNL1       -0.3841
     13 O           2.8660    0.6509    0.0000 O.3     1  UNL1       -0.3744
     14 O           2.8660    2.6509    0.0000 O.3     1  UNL1       -0.3866
     15 C          15.1794    0.5778    0.0000 C.3     1  UNL1        0.1090
     16 C          14.3153    1.0811    0.0000 C.3     1  UNL1        0.1066
     17 C          15.1755   -0.4222    0.0000 C.3     1  UNL1        0.0496
     18 C          13.4473    0.5845    0.0000 C.3     1  UNL1        0.0371
     19 C          12.5393    1.0948    0.0000 C.3     1  UNL1       -0.0200
     20 C          16.1267    0.8789    0.0000 C.3     1  UNL1       -0.0197
     21 C          14.3076   -0.9189    0.0000 C.3     1  UNL1        0.1487
     22 C          14.3353    2.1226    0.0000 C.3     1  UNL1       -0.0203
     23 C          13.4435   -0.4155    0.0000 C.3     1  UNL1        0.1463
     24 C          16.1205   -0.7306    0.0000 C.3     1  UNL1        0.0289
     25 C          12.5353    2.1364    0.0000 C.3     1  UNL1       -0.0327
     26 C          16.7073    0.0719    0.0000 C.3     1  UNL1       -0.0401
     27 C          13.4393    2.6538    0.0000 C.3     1  UNL1       -0.0469
     28 C          15.1717   -1.4222    0.0000 C.3     1  UNL1       -0.0527
     29 C          11.6103    0.5343    0.0000 C.3     1  UNL1       -0.0446
     30 C          12.5431    0.0948    0.0000 C.3     1  UNL1       -0.0588
     31 C          11.6020    2.6898    0.0000 C.3     1  UNL1       -0.0232
     32 C          10.6644    1.0659    0.0000 C.3     1  UNL1       -0.0260
     33 C          16.8623   -1.4013    0.0000 C.2     1  UNL1        0.1341
     34 C          10.6603    2.1509    0.0000 C.3     1  UNL1        0.0620
     35 C          17.8140   -1.0943    0.0000 C.3     1  UNL1       -0.0058
     36 C          14.8004   -2.7868    0.0000 C.2     1  UNL1        0.3043
     37 C          12.5717   -1.9122    0.0000 C.2     1  UNL1        0.3043
     38 C           8.9282    2.1509    0.0000 C.3     1  UNL1        0.1624
     39 C          14.2970   -3.6509    0.0000 C.3     1  UNL1        0.0332
     40 C          11.7037   -2.4088    0.0000 C.3     1  UNL1        0.0332
     41 C           8.9282    1.1509    0.0000 C.3     1  UNL1        0.0272
     42 C           8.0622    0.6509    0.0000 C.3     1  UNL1        0.0915
     43 C           7.1962    2.1509    0.0000 C.3     1  UNL1        0.0875
     44 C           7.1962    1.1509    0.0000 C.3     1  UNL1        0.1138
     45 C           6.3301    2.6509    0.0000 C.3     1  UNL1       -0.0361
     46 C           5.4641    1.1509    0.0000 C.3     1  UNL1        0.1883
     47 C           8.9282   -0.8491    0.0000 C.3     1  UNL1        0.0369
     48 C           4.5981    0.6509    0.0000 C.3     1  UNL1        0.1344
     49 C           3.7320    1.1509    0.0000 C.3     1  UNL1        0.1170
     50 C           4.5981    2.6509    0.0000 C.3     1  UNL1        0.0873
     51 C           3.7320    2.1509    0.0000 C.3     1  UNL1        0.1097
     52 C           4.5981    3.6509    0.0000 C.3     1  UNL1       -0.0361
     53 C           2.0000    1.1509    0.0000 C.3     1  UNL1        0.0370
     54 H          14.1818    0.1566    0.0000 H       1  UNL1        0.0372
     55 H          16.6653    1.1860    0.0000 H       1  UNL1        0.0294
     56 H          15.8779    1.4467    0.0000 H       1  UNL1        0.0294
     57 H          13.7694   -1.2268    0.0000 H       1  UNL1        0.0778
     58 H          14.9440    2.0047    0.0000 H       1  UNL1        0.0294
     59 H          14.5556    2.7021    0.0000 H       1  UNL1        0.0294
     60 H          12.9077   -0.1035    0.0000 H       1  UNL1        0.0775
     61 H          15.8096   -1.2670    0.0000 H       1  UNL1        0.0385
     62 H          12.5418    2.9864    0.0000 H       1  UNL1        0.0307
     63 H          17.1665   -0.3446    0.0000 H       1  UNL1        0.0273
     64 H          17.1697    0.4848    0.0000 H       1  UNL1        0.0273
     65 H          13.8421    3.1251    0.0000 H       1  UNL1        0.0269
     66 H          13.0439    3.1313    0.0000 H       1  UNL1        0.0269
     67 H          14.5517   -1.4198    0.0000 H       1  UNL1        0.0237
     68 H          15.1693   -2.0422    0.0000 H       1  UNL1        0.0237
     69 H          15.7916   -1.4246    0.0000 H       1  UNL1        0.0237
     70 H          11.2185    0.0538    0.0000 H       1  UNL1        0.0272
     71 H          12.0167    0.0661    0.0000 H       1  UNL1        0.0272
     72 H          11.9231    0.0924    0.0000 H       1  UNL1        0.0235
     73 H          12.5455   -0.5252    0.0000 H       1  UNL1        0.0235
     74 H          13.1631    0.0972    0.0000 H       1  UNL1        0.0235
     75 H          12.0048    3.1611    0.0000 H       1  UNL1        0.0293
     76 H          11.2065    3.1673    0.0000 H       1  UNL1        0.0293
     77 H          10.0532    1.1696    0.0000 H       1  UNL1        0.0290
     78 H          10.4576    0.4814    0.0000 H       1  UNL1        0.0290
     79 H          10.6614    2.7709    0.0000 H       1  UNL1        0.0597
     80 H          18.0043   -1.6844    0.0000 H       1  UNL1        0.0306
     81 H          18.4040   -0.9040    0.0000 H       1  UNL1        0.0306
     82 H          17.6236   -0.5042    0.0000 H       1  UNL1        0.0306
     83 H           9.4651    1.8409    0.0000 H       1  UNL1        0.0910
     84 H          13.7613   -3.3388    0.0000 H       1  UNL1        0.0342
     85 H          13.9850   -4.1866    0.0000 H       1  UNL1        0.0342
     86 H          14.8328   -3.9630    0.0000 H       1  UNL1        0.0342
     87 H          11.3958   -1.8707    0.0000 H       1  UNL1        0.0342
     88 H          11.1656   -2.7168    0.0000 H       1  UNL1        0.0342
     89 H          12.0117   -2.9470    0.0000 H       1  UNL1        0.0342
     90 H           9.1403    0.5683    0.0000 H       1  UNL1        0.0340
     91 H           9.5388    1.2586    0.0000 H       1  UNL1        0.0340
     92 H           7.5252    0.3409    0.0000 H       1  UNL1        0.0624
     93 H           7.1962    2.7709    0.0000 H       1  UNL1        0.0621
     94 H           6.6592    1.4609    0.0000 H       1  UNL1        0.0649
     95 H           6.6401    3.1878    0.0000 H       1  UNL1        0.0255
     96 H           5.7932    2.9609    0.0000 H       1  UNL1        0.0255
     97 H           6.0201    2.1140    0.0000 H       1  UNL1        0.0255
     98 H           5.4641    0.5309    0.0000 H       1  UNL1        0.0938
     99 H           8.6182   -1.3860    0.0000 H       1  UNL1        0.0524
    100 H           9.4651   -1.1591    0.0000 H       1  UNL1        0.0524
    101 H           9.2382   -0.3122    0.0000 H       1  UNL1        0.0524
    102 H           4.0611    0.3409    0.0000 H       1  UNL1        0.0671
    103 H           3.1951    1.4609    0.0000 H       1  UNL1        0.0650
    104 H           5.1350    2.9609    0.0000 H       1  UNL1        0.0621
    105 H           3.7320    2.7709    0.0000 H       1  UNL1        0.0646
    106 H           4.0611   -0.6591    0.0000 H       1  UNL1        0.2101
    107 H           5.2181    3.6509    0.0000 H       1  UNL1        0.0255
    108 H           4.5981    4.2709    0.0000 H       1  UNL1        0.0255
    109 H           3.9781    3.6509    0.0000 H       1  UNL1        0.0255
    110 H           2.8660    3.2709    0.0000 H       1  UNL1        0.2100
    111 H           2.3100    1.6878    0.0000 H       1  UNL1        0.0524
    112 H           1.4631    1.4609    0.0000 H       1  UNL1        0.0524
    113 H           1.6900    0.6140    0.0000 H       1  UNL1        0.0524
@<TRIPOS>BOND
     1    15     1    1
     2    16     1    1
     3    21     2    1
     4     2    36    1
     5    23     3    1
     6     3    37    1
     7    34     4    1
     8    38     4    1
     9     5    33    2
    10     6    36    2
    11     7    37    2
    12     8    38    1
    13     8    43    1
    14    42     9    1
    15     9    47    1
    16    44    10    1
    17    46    10    1
    18    11    46    1
    19    11    50    1
    20    48    12    1
    21    12   106    1
    22    49    13    1
    23    13    53    1
    24    51    14    1
    25    14   110    1
    26    15    16    1
    27    15    17    1
    28    15    20    1
    29    16    18    1
    30    16    22    1
    31    17    21    1
    32    17    24    1
    33    17    28    1
    34    18    19    1
    35    18    23    1
    36    18    54    1
    37    19    25    1
    38    19    29    1
    39    19    30    1
    40    20    26    1
    41    20    55    1
    42    20    56    1
    43    21    23    1
    44    21    57    1
    45    22    27    1
    46    22    58    1
    47    22    59    1
    48    23    60    1
    49    24    26    1
    50    24    33    1
    51    24    61    1
    52    25    27    1
    53    25    31    1
    54    25    62    1
    55    26    63    1
    56    26    64    1
    57    27    65    1
    58    27    66    1
    59    28    67    1
    60    28    68    1
    61    28    69    1
    62    29    32    1
    63    29    70    1
    64    29    71    1
    65    30    72    1
    66    30    73    1
    67    30    74    1
    68    31    34    1
    69    31    75    1
    70    31    76    1
    71    32    34    1
    72    32    77    1
    73    32    78    1
    74    33    35    1
    75    34    79    1
    76    35    80    1
    77    35    81    1
    78    35    82    1
    79    36    39    1
    80    37    40    1
    81    38    41    1
    82    38    83    1
    83    39    84    1
    84    39    85    1
    85    39    86    1
    86    40    87    1
    87    40    88    1
    88    40    89    1
    89    41    42    1
    90    41    90    1
    91    41    91    1
    92    42    44    1
    93    42    92    1
    94    43    44    1
    95    43    45    1
    96    43    93    1
    97    44    94    1
    98    45    95    1
    99    45    96    1
   100    45    97    1
   101    46    48    1
   102    46    98    1
   103    47    99    1
   104    47   100    1
   105    47   101    1
   106    48    49    1
   107    48   102    1
   108    49    51    1
   109    49   103    1
   110    50    51    1
   111    50    52    1
   112    50   104    1
   113    51   105    1
   114    52   107    1
   115    52   108    1
   116    52   109    1
   117    53   111    1
   118    53   112    1
   119    53   113    1
