@<TRIPOS>MOLECULE
IMPHY017820
 58 59 0 0 0
SMALL
GASTEIGER

@<TRIPOS>ATOM
      1 O           2.7320    1.6068    0.0000 O.3     1  UNL1       -0.3886
      2 O           2.0000   -3.3932    0.0000 O.3     1  UNL1       -0.3910
      3 C           5.4641    1.6068    0.0000 C.3     1  UNL1       -0.0233
      4 C           5.4641    2.6068    0.0000 C.3     1  UNL1       -0.0300
      5 C           4.5981    1.1068    0.0000 C.3     1  UNL1       -0.0064
      6 C           6.3580    3.1415    0.0000 C.3     1  UNL1       -0.0315
      7 C           3.7320    1.6068    0.0000 C.3     1  UNL1        0.0666
      8 C           6.3580    1.0721    0.0000 C.3     1  UNL1       -0.0470
      9 C           4.5981    3.1068    0.0000 C.3     1  UNL1       -0.0466
     10 C           3.7320    2.6068    0.0000 C.3     1  UNL1       -0.0237
     11 C           7.2641    2.6276    0.0000 C.3     1  UNL1       -0.0476
     12 C           7.2641    1.5860    0.0000 C.3     1  UNL1       -0.0521
     13 C           5.4641    0.6068    0.0000 C.3     1  UNL1       -0.0589
     14 C           4.5981    0.1068    0.0000 C.3     1  UNL1       -0.0434
     15 C           6.8480    4.0132    0.0000 C.3     1  UNL1       -0.0595
     16 C           5.8481    4.0016    0.0000 C.3     1  UNL1       -0.0595
     17 C           3.2320    0.7408    0.0000 C.3     1  UNL1       -0.0358
     18 C           3.7320   -0.3932    0.0000 C.3     1  UNL1       -0.0316
     19 C           3.7320   -1.3932    0.0000 C.2     1  UNL1       -0.0744
     20 C           4.5981   -1.8932    0.0000 C.3     1  UNL1       -0.0437
     21 C           2.8660   -1.8932    0.0000 C.2     1  UNL1       -0.0600
     22 C           2.8660   -2.8932    0.0000 C.3     1  UNL1        0.0626
     23 H           5.4593    3.2268    0.0000 H       1  UNL1        0.0311
     24 H           4.0611    0.7968    0.0000 H       1  UNL1        0.0334
     25 H           5.9534    0.6023    0.0000 H       1  UNL1        0.0271
     26 H           6.7517    0.5931    0.0000 H       1  UNL1        0.0271
     27 H           4.9966    3.5817    0.0000 H       1  UNL1        0.0269
     28 H           4.1996    3.5817    0.0000 H       1  UNL1        0.0269
     29 H           3.5200    3.1894    0.0000 H       1  UNL1        0.0293
     30 H           3.1215    2.4991    0.0000 H       1  UNL1        0.0293
     31 H           7.8750    2.5215    0.0000 H       1  UNL1        0.0271
     32 H           7.4732    3.2113    0.0000 H       1  UNL1        0.0271
     33 H           7.4732    1.0023    0.0000 H       1  UNL1        0.0266
     34 H           7.8750    1.6921    0.0000 H       1  UNL1        0.0266
     35 H           4.8441    0.6068    0.0000 H       1  UNL1        0.0235
     36 H           5.4641   -0.0132    0.0000 H       1  UNL1        0.0235
     37 H           6.0841    0.6068    0.0000 H       1  UNL1        0.0235
     38 H           4.8101   -0.4758    0.0000 H       1  UNL1        0.0272
     39 H           5.2087    0.2145    0.0000 H       1  UNL1        0.0272
     40 H           7.3885    3.7094    0.0000 H       1  UNL1        0.0235
     41 H           7.1518    4.5537    0.0000 H       1  UNL1        0.0235
     42 H           6.3075    4.3170    0.0000 H       1  UNL1        0.0235
     43 H           6.3814    4.3178    0.0000 H       1  UNL1        0.0235
     44 H           5.5319    4.5350    0.0000 H       1  UNL1        0.0235
     45 H           5.3148    3.6854    0.0000 H       1  UNL1        0.0235
     46 H           2.6951    1.0508    0.0000 H       1  UNL1        0.0257
     47 H           2.9220    0.2038    0.0000 H       1  UNL1        0.0257
     48 H           3.7690    0.4308    0.0000 H       1  UNL1        0.0257
     49 H           3.5200    0.1894    0.0000 H       1  UNL1        0.0310
     50 H           3.1215   -0.5009    0.0000 H       1  UNL1        0.0310
     51 H           2.4220    2.1437    0.0000 H       1  UNL1        0.2102
     52 H           4.2881   -2.4301    0.0000 H       1  UNL1        0.0274
     53 H           5.1350   -2.2032    0.0000 H       1  UNL1        0.0274
     54 H           4.9081   -1.3563    0.0000 H       1  UNL1        0.0274
     55 H           2.3291   -1.5832    0.0000 H       1  UNL1        0.0594
     56 H           3.0781   -3.4758    0.0000 H       1  UNL1        0.0601
     57 H           3.4766   -2.7855    0.0000 H       1  UNL1        0.0601
     58 H           2.0000   -4.0132    0.0000 H       1  UNL1        0.2098
@<TRIPOS>BOND
     1     7     1    1
     2     1    51    1
     3     2    22    1
     4     2    58    1
     5     3     4    1
     6     3     5    1
     7     3     8    1
     8     3    13    1
     9     4     6    1
    10     4     9    1
    11     4    23    1
    12     5     7    1
    13     5    14    1
    14     5    24    1
    15     6    11    1
    16     6    15    1
    17     6    16    1
    18     7    10    1
    19     7    17    1
    20     8    12    1
    21     8    25    1
    22     8    26    1
    23     9    10    1
    24     9    27    1
    25     9    28    1
    26    10    29    1
    27    10    30    1
    28    11    12    1
    29    11    31    1
    30    11    32    1
    31    12    33    1
    32    12    34    1
    33    13    35    1
    34    13    36    1
    35    13    37    1
    36    14    18    1
    37    14    38    1
    38    14    39    1
    39    15    40    1
    40    15    41    1
    41    15    42    1
    42    16    43    1
    43    16    44    1
    44    16    45    1
    45    17    46    1
    46    17    47    1
    47    17    48    1
    48    18    19    1
    49    18    49    1
    50    18    50    1
    51    19    20    1
    52    19    21    2
    53    20    52    1
    54    20    53    1
    55    20    54    1
    56    21    22    1
    57    21    55    1
    58    22    56    1
    59    22    57    1
