@<TRIPOS>MOLECULE
IMPHY001230
 28 30 0 0 0
SMALL
GASTEIGER

@<TRIPOS>ATOM
      1 O           8.7460   -1.5374    0.0000 O.2     1  UNL1       -0.4628
      2 O           4.2678   -0.2119    0.0000 O.2     1  UNL1       -0.4243
      3 O           6.9338    1.2673    0.0000 O.3     1  UNL1       -0.4936
      4 O           5.1854    1.3019    0.0000 O.2     1  UNL1       -0.2444
      5 O           2.5357   -1.2602    0.0000 O.3     1  UNL1       -0.3873
      6 C           6.0678   -0.2327    0.0000 C.ar    1  UNL1        0.1089
      7 C           6.0678   -1.2327    0.0000 C.ar    1  UNL1       -0.0007
      8 C           7.7998   -0.2327    0.0000 C.ar    1  UNL1        0.0626
      9 C           6.9338    0.2673    0.0000 C.ar    1  UNL1        0.1454
     10 C           7.7998   -1.2327    0.0000 C.ar    1  UNL1        0.1389
     11 C           6.9338   -1.7327    0.0000 C.ar    1  UNL1       -0.0105
     12 C           5.1738   -1.7673    0.0000 C.ar    1  UNL1       -0.0130
     13 C           5.1738    0.3020    0.0000 C.ar    1  UNL1        0.3484
     14 C           4.2678   -1.2535    0.0000 C.ar    1  UNL1        0.1349
     15 C           8.7460    0.0721    0.0000 C.ar    1  UNL1       -0.0126
     16 C           9.3297   -0.7327    0.0000 C.ar    1  UNL1        0.0932
     17 C           3.4037   -1.7568    0.0000 C.3     1  UNL1        0.1020
     18 C           7.7998    1.7673    0.0000 C.3     1  UNL1        0.0788
     19 H           6.9338   -2.3527    0.0000 H       1  UNL1        0.0661
     20 H           5.1810   -2.3873    0.0000 H       1  UNL1        0.0658
     21 H           8.9387    0.6614    0.0000 H       1  UNL1        0.0656
     22 H           9.9497   -0.7327    0.0000 H       1  UNL1        0.1030
     23 H           3.0070   -2.2333    0.0000 H       1  UNL1        0.0638
     24 H           3.8040   -2.2302    0.0000 H       1  UNL1        0.0638
     25 H           8.1098    1.2304    0.0000 H       1  UNL1        0.0660
     26 H           8.3368    2.0773    0.0000 H       1  UNL1        0.0660
     27 H           7.4898    2.3043    0.0000 H       1  UNL1        0.0660
     28 H           2.0000   -1.5722    0.0000 H       1  UNL1        0.2100
@<TRIPOS>BOND
     1     1    10   ar
     2     1    16   ar
     3     2    13   ar
     4     2    14   ar
     5     3     9    1
     6     3    18    1
     7     4    13    2
     8     5    17    1
     9     5    28    1
    10     6     7   ar
    11     6     9   ar
    12     6    13   ar
    13     7    11   ar
    14     7    12   ar
    15     8     9   ar
    16     8    10   ar
    17     8    15   ar
    18    10    11   ar
    19    11    19    1
    20    12    14   ar
    21    12    20    1
    22    14    17    1
    23    15    16   ar
    24    15    21    1
    25    16    22    1
    26    17    23    1
    27    17    24    1
    28    18    25    1
    29    18    26    1
    30    18    27    1
