@<TRIPOS>MOLECULE
IMPHY010261
 139 146 0 0 0
SMALL
GASTEIGER

@<TRIPOS>ATOM
      1 O           8.2902    3.0909    0.0000 O.3     1  UNL1       -0.3450
      2 O           6.7611    4.3229    0.0000 O.3     1  UNL1       -0.3642
      3 O           6.8671   -5.1532    0.0000 O.3     1  UNL1       -0.3454
      4 O           5.1350   -5.1532    0.0000 O.3     1  UNL1       -0.3405
      5 O           6.8671   -7.1532    0.0000 O.3     1  UNL1       -0.3378
      6 O          10.9247    6.1903    0.0000 O.3     1  UNL1       -0.3484
      7 O           5.1350   -8.1532    0.0000 O.3     1  UNL1       -0.3864
      8 O           3.4030   -7.1532    0.0000 O.3     1  UNL1       -0.3865
      9 O           7.7331   -5.6532    0.0000 O.3     1  UNL1       -0.3431
     10 O           2.5369   -5.6532    0.0000 O.3     1  UNL1       -0.3924
     11 O          12.4273    5.3287    0.0000 O.3     1  UNL1       -0.3405
     12 O           8.5991   -8.1532    0.0000 O.3     1  UNL1       -0.3841
     13 O          11.9195    7.9253    0.0000 O.3     1  UNL1       -0.3841
     14 O          10.3312   -7.1532    0.0000 O.3     1  UNL1       -0.3864
     15 O          13.9195    7.9313    0.0000 O.3     1  UNL1       -0.3864
     16 O          10.3312   -5.1532    0.0000 O.3     1  UNL1       -0.3866
     17 O          14.9247    6.2022    0.0000 O.3     1  UNL1       -0.3865
     18 O          14.9298    4.4702    0.0000 O.3     1  UNL1       -0.3924
     19 C           6.8963    1.0437    0.0000 C.3     1  UNL1       -0.0233
     20 C           7.7643    0.5471    0.0000 C.3     1  UNL1       -0.0298
     21 C           7.7681   -0.4529    0.0000 C.3     1  UNL1       -0.0343
     22 C           7.1018    2.0163    0.0000 C.3     1  UNL1       -0.0015
     23 C           6.9040   -0.9563    0.0000 C.3     1  UNL1       -0.0323
     24 C           6.8920   -1.9978    0.0000 C.3     1  UNL1       -0.0260
     25 C           8.0901    2.1232    0.0000 C.3     1  UNL1        0.0660
     26 C           8.4987    1.2170    0.0000 C.3     1  UNL1       -0.0226
     27 C           6.0322    0.5404    0.0000 C.3     1  UNL1       -0.0467
     28 C           6.0361   -0.4596    0.0000 C.3     1  UNL1       -0.0489
     29 C           7.7920   -2.5221    0.0000 C.3     1  UNL1       -0.0330
     30 C           6.6995    2.9189    0.0000 C.3     1  UNL1        0.0158
     31 C           8.6801   -0.9563    0.0000 C.3     1  UNL1       -0.0494
     32 C           8.6921   -1.9978    0.0000 C.3     1  UNL1       -0.0494
     33 C           6.0284    1.5404    0.0000 C.3     1  UNL1       -0.0590
     34 C           7.4324    3.5817    0.0000 C.3     1  UNL1        0.1704
     35 C           5.9421   -2.5221    0.0000 C.3     1  UNL1       -0.0448
     36 C           7.8046   -3.6070    0.0000 C.3     1  UNL1       -0.0232
     37 C           6.0279   -1.4945    0.0000 C.3     1  UNL1       -0.0590
     38 C           5.9295   -3.6070    0.0000 C.3     1  UNL1       -0.0260
     39 C           6.8671   -4.1532    0.0000 C.3     1  UNL1        0.0621
     40 C           5.7211    3.1256    0.0000 C.3     1  UNL1       -0.0572
     41 C           7.9299    4.4492    0.0000 C.3     1  UNL1        0.0018
     42 C           8.9299    4.4522    0.0000 C.3     1  UNL1       -0.0435
     43 C           9.4273    5.3198    0.0000 C.3     1  UNL1       -0.0201
     44 C           6.0010   -5.6532    0.0000 C.3     1  UNL1        0.1886
     45 C           6.0010   -6.6532    0.0000 C.3     1  UNL1        0.1406
     46 C          10.4273    5.3227    0.0000 C.3     1  UNL1        0.0533
     47 C           8.9247    6.1843    0.0000 C.3     1  UNL1       -0.0603
     48 C           5.1350   -7.1532    0.0000 C.3     1  UNL1        0.1144
     49 C           4.2690   -5.6532    0.0000 C.3     1  UNL1        0.1130
     50 C           4.2690   -6.6532    0.0000 C.3     1  UNL1        0.1119
     51 C           3.4030   -5.1532    0.0000 C.3     1  UNL1        0.0730
     52 C           7.7331   -6.6532    0.0000 C.3     1  UNL1        0.1884
     53 C          11.9247    6.1932    0.0000 C.3     1  UNL1        0.1879
     54 C           8.5991   -7.1532    0.0000 C.3     1  UNL1        0.1341
     55 C          12.4221    7.0608    0.0000 C.3     1  UNL1        0.1341
     56 C           9.4651   -6.6532    0.0000 C.3     1  UNL1        0.1140
     57 C          13.4221    7.0638    0.0000 C.3     1  UNL1        0.1141
     58 C           8.5991   -5.1532    0.0000 C.3     1  UNL1        0.0873
     59 C           9.4651   -5.6532    0.0000 C.3     1  UNL1        0.1095
     60 C          13.4272    5.3317    0.0000 C.3     1  UNL1        0.1130
     61 C          13.9247    6.1992    0.0000 C.3     1  UNL1        0.1119
     62 C           8.5991   -4.1532    0.0000 C.3     1  UNL1       -0.0361
     63 C          13.9298    4.4672    0.0000 C.3     1  UNL1        0.0730
     64 H           8.5426    0.2053    0.0000 H       1  UNL1        0.0310
     65 H           8.4993   -0.0194    0.0000 H       1  UNL1        0.0306
     66 H           6.2565    1.9268    0.0000 H       1  UNL1        0.0335
     67 H           7.6385   -1.3841    0.0000 H       1  UNL1        0.0309
     68 H           8.9350    2.2164    0.0000 H       1  UNL1        0.0600
     69 H           8.8661    0.7175    0.0000 H       1  UNL1        0.0293
     70 H           9.0340    1.5298    0.0000 H       1  UNL1        0.0293
     71 H           5.8179    1.1222    0.0000 H       1  UNL1        0.0271
     72 H           5.4221    0.4304    0.0000 H       1  UNL1        0.0271
     73 H           5.4251   -0.3543    0.0000 H       1  UNL1        0.0268
     74 H           5.8263   -1.0430    0.0000 H       1  UNL1        0.0268
     75 H           8.5314   -2.9414    0.0000 H       1  UNL1        0.0307
     76 H           6.3097    2.4368    0.0000 H       1  UNL1        0.0354
     77 H           9.2921   -1.0553    0.0000 H       1  UNL1        0.0268
     78 H           8.8824   -0.3702    0.0000 H       1  UNL1        0.0268
     79 H           8.9079   -2.5791    0.0000 H       1  UNL1        0.0268
     80 H           9.3017   -1.8847    0.0000 H       1  UNL1        0.0268
     81 H           6.3363    2.0785    0.0000 H       1  UNL1        0.0235
     82 H           5.4902    1.8483    0.0000 H       1  UNL1        0.0235
     83 H           5.7204    1.0022    0.0000 H       1  UNL1        0.0235
     84 H           5.7398   -1.9360    0.0000 H       1  UNL1        0.0271
     85 H           5.3300   -2.6211    0.0000 H       1  UNL1        0.0271
     86 H           8.0204   -4.1883    0.0000 H       1  UNL1        0.0293
     87 H           8.4142   -3.4939    0.0000 H       1  UNL1        0.0293
     88 H           6.3400   -0.9588    0.0000 H       1  UNL1        0.0235
     89 H           5.4922   -1.1824    0.0000 H       1  UNL1        0.0235
     90 H           5.7158   -2.0302    0.0000 H       1  UNL1        0.0235
     91 H           5.3199   -3.4939    0.0000 H       1  UNL1        0.0290
     92 H           5.7137   -4.1883    0.0000 H       1  UNL1        0.0290
     93 H           7.4046   -4.4621    0.0000 H       1  UNL1        0.0597
     94 H           5.8492    3.7322    0.0000 H       1  UNL1        0.0234
     95 H           5.1145    3.2538    0.0000 H       1  UNL1        0.0234
     96 H           5.5929    2.5190    0.0000 H       1  UNL1        0.0234
     97 H           8.0357    5.0602    0.0000 H       1  UNL1        0.0317
     98 H           7.3466    4.6596    0.0000 H       1  UNL1        0.0317
     99 H           6.9509    4.9131    0.0000 H       1  UNL1        0.2128
    100 H           8.8240    3.8413    0.0000 H       1  UNL1        0.0270
    101 H           9.5131    4.2419    0.0000 H       1  UNL1        0.0270
    102 H           8.8073    5.3179    0.0000 H       1  UNL1        0.0320
    103 H           6.0010   -5.0332    0.0000 H       1  UNL1        0.0938
    104 H           6.0010   -7.2732    0.0000 H       1  UNL1        0.0675
    105 H          10.3214    4.7118    0.0000 H       1  UNL1        0.0563
    106 H          11.0105    5.1124    0.0000 H       1  UNL1        0.0563
    107 H           9.4607    6.4959    0.0000 H       1  UNL1        0.0233
    108 H           8.6131    6.7203    0.0000 H       1  UNL1        0.0233
    109 H           8.3887    5.8727    0.0000 H       1  UNL1        0.0233
    110 H           4.5981   -7.4632    0.0000 H       1  UNL1        0.0648
    111 H           4.2690   -5.0332    0.0000 H       1  UNL1        0.0647
    112 H           3.7320   -6.3431    0.0000 H       1  UNL1        0.0647
    113 H           3.8015   -4.6782    0.0000 H       1  UNL1        0.0584
    114 H           3.0044   -4.6782    0.0000 H       1  UNL1        0.0584
    115 H           7.1962   -6.3431    0.0000 H       1  UNL1        0.0938
    116 H           4.5981   -8.4632    0.0000 H       1  UNL1        0.2100
    117 H          11.6163    5.6554    0.0000 H       1  UNL1        0.0937
    118 H           3.4030   -7.7732    0.0000 H       1  UNL1        0.2100
    119 H           8.0622   -7.4632    0.0000 H       1  UNL1        0.0671
    120 H          12.7305    7.5986    0.0000 H       1  UNL1        0.0671
    121 H           2.0000   -5.3431    0.0000 H       1  UNL1        0.2095
    122 H          10.0021   -6.3431    0.0000 H       1  UNL1        0.0648
    123 H          14.0421    7.0656    0.0000 H       1  UNL1        0.0648
    124 H           8.0622   -4.8431    0.0000 H       1  UNL1        0.0621
    125 H           9.4651   -5.0332    0.0000 H       1  UNL1        0.0646
    126 H          13.1189    4.7938    0.0000 H       1  UNL1        0.0647
    127 H          14.2363    5.6632    0.0000 H       1  UNL1        0.0647
    128 H           9.1360   -8.4632    0.0000 H       1  UNL1        0.2101
    129 H          12.2279    8.4632    0.0000 H       1  UNL1        0.2101
    130 H           9.2191   -4.1532    0.0000 H       1  UNL1        0.0255
    131 H           8.5991   -3.5332    0.0000 H       1  UNL1        0.0255
    132 H           7.9791   -4.1532    0.0000 H       1  UNL1        0.0255
    133 H          13.3479    4.2534    0.0000 H       1  UNL1        0.0584
    134 H          14.0393    3.8569    0.0000 H       1  UNL1        0.0584
    135 H          10.8681   -6.8432    0.0000 H       1  UNL1        0.2100
    136 H          14.5395    7.9331    0.0000 H       1  UNL1        0.2100
    137 H          10.3312   -4.5332    0.0000 H       1  UNL1        0.2100
    138 H          15.2330    6.7401    0.0000 H       1  UNL1        0.2100
    139 H          15.2414    3.9342    0.0000 H       1  UNL1        0.2095
@<TRIPOS>BOND
     1     1    25    1
     2     1    34    1
     3     2    34    1
     4     2    99    1
     5    39     3    1
     6    44     3    1
     7     4    44    1
     8     4    49    1
     9    45     5    1
    10    52     5    1
    11     6    46    1
    12    53     6    1
    13    48     7    1
    14     7   116    1
    15    50     8    1
    16     8   118    1
    17     9    52    1
    18     9    58    1
    19    10    51    1
    20    10   121    1
    21    11    53    1
    22    11    60    1
    23    54    12    1
    24    12   128    1
    25    55    13    1
    26    13   129    1
    27    56    14    1
    28    14   135    1
    29    57    15    1
    30    15   136    1
    31    59    16    1
    32    16   137    1
    33    61    17    1
    34    17   138    1
    35    18    63    1
    36    18   139    1
    37    19    20    1
    38    19    22    1
    39    19    27    1
    40    19    33    1
    41    20    21    1
    42    20    26    1
    43    20    64    1
    44    21    23    1
    45    21    31    1
    46    21    65    1
    47    22    25    1
    48    22    30    1
    49    22    66    1
    50    23    24    1
    51    23    28    1
    52    23    67    1
    53    24    29    1
    54    24    35    1
    55    24    37    1
    56    25    26    1
    57    25    68    1
    58    26    69    1
    59    26    70    1
    60    27    28    1
    61    27    71    1
    62    27    72    1
    63    28    73    1
    64    28    74    1
    65    29    32    1
    66    29    36    1
    67    29    75    1
    68    30    34    1
    69    30    40    1
    70    30    76    1
    71    31    32    1
    72    31    77    1
    73    31    78    1
    74    32    79    1
    75    32    80    1
    76    33    81    1
    77    33    82    1
    78    33    83    1
    79    34    41    1
    80    35    38    1
    81    35    84    1
    82    35    85    1
    83    36    39    1
    84    36    86    1
    85    36    87    1
    86    37    88    1
    87    37    89    1
    88    37    90    1
    89    38    39    1
    90    38    91    1
    91    38    92    1
    92    39    93    1
    93    40    94    1
    94    40    95    1
    95    40    96    1
    96    41    42    1
    97    41    97    1
    98    41    98    1
    99    42    43    1
   100    42   100    1
   101    42   101    1
   102    43    46    1
   103    43    47    1
   104    43   102    1
   105    44    45    1
   106    44   103    1
   107    45    48    1
   108    45   104    1
   109    46   105    1
   110    46   106    1
   111    47   107    1
   112    47   108    1
   113    47   109    1
   114    48    50    1
   115    48   110    1
   116    49    50    1
   117    49    51    1
   118    49   111    1
   119    50   112    1
   120    51   113    1
   121    51   114    1
   122    52    54    1
   123    52   115    1
   124    53    55    1
   125    53   117    1
   126    54    56    1
   127    54   119    1
   128    55    57    1
   129    55   120    1
   130    56    59    1
   131    56   122    1
   132    57    61    1
   133    57   123    1
   134    58    59    1
   135    58    62    1
   136    58   124    1
   137    59   125    1
   138    60    61    1
   139    60    63    1
   140    60   126    1
   141    61   127    1
   142    62   130    1
   143    62   131    1
   144    62   132    1
   145    63   133    1
   146    63   134    1
