@<TRIPOS>MOLECULE
IMPHY014648
 81 84 0 0 0
SMALL
GASTEIGER

@<TRIPOS>ATOM
      1 O           4.3472   -4.0496    0.0000 O.3     1  UNL1       -0.3849
      2 O           2.5357   -3.0037    0.0000 O.3     1  UNL1       -0.3889
      3 C           7.9288    0.0486    0.0000 C.3     1  UNL1       -0.0259
      4 C           7.9288   -0.9514    0.0000 C.3     1  UNL1       -0.0320
      5 C           7.0628   -1.4514    0.0000 C.3     1  UNL1       -0.0307
      6 C           6.1968   -0.9514    0.0000 C.3     1  UNL1       -0.0285
      7 C           8.8750    0.3533    0.0000 C.3     1  UNL1       -0.0328
      8 C           7.0628    0.5486    0.0000 C.3     1  UNL1       -0.0468
      9 C           5.2868   -1.4582    0.0000 C.3     1  UNL1       -0.0054
     10 C           8.8750   -1.2561    0.0000 C.3     1  UNL1       -0.0492
     11 C           6.1968    0.0486    0.0000 C.3     1  UNL1       -0.0486
     12 C           9.4586   -0.4514    0.0000 C.3     1  UNL1       -0.0492
     13 C           7.0789   -2.4929    0.0000 C.3     1  UNL1       -0.0310
     14 C           9.1857    1.3038    0.0000 C.3     1  UNL1       -0.0405
     15 C           7.9288    1.0486    0.0000 C.3     1  UNL1       -0.0590
     16 C           5.2787   -2.4998    0.0000 C.2     1  UNL1       -0.0367
     17 C           4.3599   -0.8942    0.0000 C.3     1  UNL1       -0.0411
     18 C           6.1808   -3.0207    0.0000 C.2     1  UNL1       -0.0815
     19 C           5.2945   -0.4583    0.0000 C.3     1  UNL1       -0.0555
     20 C           4.3433   -3.0496    0.0000 C.3     1  UNL1        0.1026
     21 C           3.4120   -1.4221    0.0000 C.3     1  UNL1       -0.0233
     22 C          10.1642    1.5101    0.0000 C.3     1  UNL1       -0.0499
     23 C           3.4037   -2.5071    0.0000 C.3     1  UNL1        0.0849
     24 C           8.5179    2.0482    0.0000 C.3     1  UNL1       -0.0621
     25 C          10.4749    2.4606    0.0000 C.3     1  UNL1       -0.0497
     26 C          11.4534    2.6668    0.0000 C.3     1  UNL1       -0.0389
     27 C          11.7640    3.6173    0.0000 C.3     1  UNL1       -0.0439
     28 C          12.1212    1.9225    0.0000 C.3     1  UNL1       -0.0528
     29 C          12.7425    3.8236    0.0000 C.3     1  UNL1       -0.0624
     30 C          11.0962    4.3616    0.0000 C.3     1  UNL1       -0.0624
     31 C          13.0997    2.1287    0.0000 C.3     1  UNL1       -0.0650
     32 H           8.0045   -1.7111    0.0000 H       1  UNL1        0.0309
     33 H           6.4189   -1.8616    0.0000 H       1  UNL1        0.0309
     34 H           6.1635   -1.7141    0.0000 H       1  UNL1        0.0312
     35 H           8.3395    0.8975    0.0000 H       1  UNL1        0.0309
     36 H           6.6811    1.2098    0.0000 H       1  UNL1        0.0271
     37 H           7.4445    1.2098    0.0000 H       1  UNL1        0.0271
     38 H           9.4432   -1.7660    0.0000 H       1  UNL1        0.0268
     39 H           8.7176   -2.0031    0.0000 H       1  UNL1        0.0268
     40 H           5.4334    0.0486    0.0000 H       1  UNL1        0.0268
     41 H           5.8151    0.7098    0.0000 H       1  UNL1        0.0268
     42 H          10.1198   -0.0697    0.0000 H       1  UNL1        0.0268
     43 H          10.1198   -0.8331    0.0000 H       1  UNL1        0.0268
     44 H           7.8423   -2.4840    0.0000 H       1  UNL1        0.0310
     45 H           7.4683   -3.1496    0.0000 H       1  UNL1        0.0310
     46 H           9.6956    0.7356    0.0000 H       1  UNL1        0.0301
     47 H           8.5900    1.4303    0.0000 H       1  UNL1        0.0235
     48 H           7.9288    1.8120    0.0000 H       1  UNL1        0.0235
     49 H           7.2676    1.4303    0.0000 H       1  UNL1        0.0235
     50 H           3.9910   -0.2258    0.0000 H       1  UNL1        0.0274
     51 H           4.7543   -0.2405    0.0000 H       1  UNL1        0.0274
     52 H           6.1837   -3.7841    0.0000 H       1  UNL1        0.0573
     53 H           5.9586   -0.0817    0.0000 H       1  UNL1        0.0238
     54 H           5.3004    0.3051    0.0000 H       1  UNL1        0.0238
     55 H           4.6363   -0.0715    0.0000 H       1  UNL1        0.0238
     56 H           3.6575   -3.3849    0.0000 H       1  UNL1        0.0666
     57 H           2.6486   -1.4132    0.0000 H       1  UNL1        0.0291
     58 H           3.0380   -0.7566    0.0000 H       1  UNL1        0.0291
     59 H          10.8899    1.2730    0.0000 H       1  UNL1        0.0268
     60 H          10.3216    0.7631    0.0000 H       1  UNL1        0.0268
     61 H           3.4562   -3.2687    0.0000 H       1  UNL1        0.0622
     62 H           8.7551    2.7738    0.0000 H       1  UNL1        0.0233
     63 H           8.0081    2.6165    0.0000 H       1  UNL1        0.0233
     64 H           7.7709    1.8908    0.0000 H       1  UNL1        0.0233
     65 H           9.7492    2.6978    0.0000 H       1  UNL1        0.0268
     66 H          10.3175    3.2076    0.0000 H       1  UNL1        0.0268
     67 H           4.3502   -4.8130    0.0000 H       1  UNL1        0.2103
     68 H          12.2004    2.8242    0.0000 H       1  UNL1        0.0303
     69 H           1.8730   -3.3828    0.0000 H       1  UNL1        0.2099
     70 H          11.0170    3.4599    0.0000 H       1  UNL1        0.0298
     71 H          12.2786    1.1755    0.0000 H       1  UNL1        0.0265
     72 H          11.5529    1.4127    0.0000 H       1  UNL1        0.0265
     73 H          13.2524    3.2554    0.0000 H       1  UNL1        0.0232
     74 H          13.4895    3.9811    0.0000 H       1  UNL1        0.0232
     75 H          12.9796    4.5493    0.0000 H       1  UNL1        0.0232
     76 H          11.3334    5.0873    0.0000 H       1  UNL1        0.0232
     77 H          10.5864    4.9298    0.0000 H       1  UNL1        0.0232
     78 H          10.3492    4.2042    0.0000 H       1  UNL1        0.0232
     79 H          13.6095    1.5605    0.0000 H       1  UNL1        0.0230
     80 H          13.8467    2.2861    0.0000 H       1  UNL1        0.0230
     81 H          13.3369    2.8544    0.0000 H       1  UNL1        0.0230
@<TRIPOS>BOND
     1     1    20    1
     2     1    67    1
     3     2    23    1
     4     2    69    1
     5     3     4    1
     6     3     7    1
     7     3     8    1
     8     3    15    1
     9     4     5    1
    10     4    10    1
    11     4    32    1
    12     5     6    1
    13     5    13    1
    14     5    33    1
    15     6     9    1
    16     6    11    1
    17     6    34    1
    18     7    12    1
    19     7    14    1
    20     7    35    1
    21     8    11    1
    22     8    36    1
    23     8    37    1
    24     9    16    1
    25     9    17    1
    26     9    19    1
    27    10    12    1
    28    10    38    1
    29    10    39    1
    30    11    40    1
    31    11    41    1
    32    12    42    1
    33    12    43    1
    34    13    18    1
    35    13    44    1
    36    13    45    1
    37    14    22    1
    38    14    24    1
    39    14    46    1
    40    15    47    1
    41    15    48    1
    42    15    49    1
    43    16    18    2
    44    16    20    1
    45    17    21    1
    46    17    50    1
    47    17    51    1
    48    18    52    1
    49    19    53    1
    50    19    54    1
    51    19    55    1
    52    20    23    1
    53    20    56    1
    54    21    23    1
    55    21    57    1
    56    21    58    1
    57    22    25    1
    58    22    59    1
    59    22    60    1
    60    23    61    1
    61    24    62    1
    62    24    63    1
    63    24    64    1
    64    25    26    1
    65    25    65    1
    66    25    66    1
    67    26    27    1
    68    26    28    1
    69    26    68    1
    70    27    29    1
    71    27    30    1
    72    27    70    1
    73    28    31    1
    74    28    71    1
    75    28    72    1
    76    29    73    1
    77    29    74    1
    78    29    75    1
    79    30    76    1
    80    30    77    1
    81    30    78    1
    82    31    79    1
    83    31    80    1
    84    31    81    1
