@<TRIPOS>MOLECULE
IMPHY010694
 42 42 0 0 0
SMALL
GASTEIGER

@<TRIPOS>ATOM
      1 C           0.0000   -3.3645    0.0000 C.3     1  UNL1        0.0000
      2 C          40.5364    0.0000    0.0000 C.3     1  UNL1        0.2526
      3 C           1.1756   -4.0131    0.0000 C.3     1  UNL1        0.0000
      4 C           2.3106   -3.3645    0.0000 C.3     1  UNL1        0.0000
      5 C           3.4861   -4.0131    0.0000 C.3     1  UNL1        0.0000
      6 C           4.6211   -3.3645    0.0000 C.3     1  UNL1        0.0000
      7 C           5.7967   -4.0131    0.0000 C.3     1  UNL1        0.0000
      8 C           6.9317   -3.3645    0.0000 C.3     1  UNL1        0.0000
      9 C           8.1073   -4.0131    0.0000 C.3     1  UNL1        0.0000
     10 C           9.2828   -3.3645    0.0000 C.3     1  UNL1        0.0000
     11 C          10.4178   -4.0131    0.0000 C.3     1  UNL1        0.0000
     12 C          11.5934   -3.3645    0.0000 C.3     1  UNL1        0.0000
     13 C          12.7284   -4.0131    0.0000 C.3     1  UNL1        0.0000
     14 C          13.9040   -3.3645    0.0000 C.3     1  UNL1        0.0000
     15 C          15.0390   -4.0131    0.0000 C.3     1  UNL1        0.0000
     16 C          16.2146   -3.3645    0.0000 C.3     1  UNL1        0.0000
     17 C          17.3901   -4.0131    0.0000 C.3     1  UNL1        0.0000
     18 C          18.5251   -3.3645    0.0000 C.3     1  UNL1        0.0000
     19 C          19.7007   -4.0131    0.0000 C.3     1  UNL1        0.0000
     20 C          20.8357   -3.3645    0.0000 C.3     1  UNL1        0.0000
     21 C          22.0113   -4.0131    0.0000 C.3     1  UNL1        0.0000
     22 C          23.1463   -3.3645    0.0000 C.3     1  UNL1        0.0000
     23 C          24.3218   -4.0131    0.0000 C.3     1  UNL1        0.0000
     24 C          25.4974   -3.3645    0.0000 C.3     1  UNL1        0.0000
     25 C          26.6324   -4.0131    0.0000 C.3     1  UNL1        0.0000
     26 C          27.8080   -3.3645    0.0000 C.3     1  UNL1        0.0001
     27 C          28.9430   -4.0131    0.0000 C.3     1  UNL1        0.0038
     28 C          30.1185   -3.3645    0.0000 C.3     1  UNL1        0.0475
     29 C          38.2258   -4.0131    0.0000 C.ar    1  UNL1        0.0033
     30 C          35.9152   -4.0131    0.0000 C.2     1  UNL1        0.0068
     31 C          39.3608   -3.3645    0.0000 C.ar    1  UNL1        0.0402
     32 C          34.7397   -3.3645    0.0000 C.2     1  UNL1        0.0819
     33 C          31.2535   -4.0131    0.0000 C.3     1  UNL1        0.2088
     34 C          37.0502   -2.0268    0.0000 C.ar    1  UNL1        0.0452
     35 C          37.0502   -3.3645    0.0000 C.ar    1  UNL1        0.0036
     36 C          38.2258   -1.3377    0.0000 C.ar    1  UNL1        0.2293
     37 C          39.3608   -2.0268    0.0000 C.ar    1  UNL1        0.1774
     38 C          33.6047   -4.0131    0.0000 C.2     1  UNL1        0.3414
     39 O          38.2258    0.0000    0.0000 O.3     1  UNL1       -0.2833
     40 O          33.6047   -5.3508    0.0000 O.2     1  UNL1       -0.2449
     41 O          40.5364   -1.3377    0.0000 O.3     1  UNL1       -0.4682
     42 O          32.4291   -3.3645    0.0000 O.3     1  UNL1       -0.4454
@<TRIPOS>BOND
     1     1     3    1
     2     2    41    1
     3     3     4    1
     4     4     5    1
     5     5     6    1
     6     6     7    1
     7     7     8    1
     8     8     9    1
     9     9    10    1
    10    10    11    1
    11    11    12    1
    12    12    13    1
    13    13    14    1
    14    14    15    1
    15    15    16    1
    16    16    17    1
    17    17    18    1
    18    18    19    1
    19    19    20    1
    20    20    21    1
    21    21    22    1
    22    22    23    1
    23    23    24    1
    24    24    25    1
    25    25    26    1
    26    26    27    1
    27    27    28    1
    28    28    33    1
    29    29    31   ar
    30    29    35   ar
    31    30    32    2
    32    30    35    1
    33    31    37   ar
    34    32    38    1
    35    33    42    1
    36    34    35   ar
    37    34    36   ar
    38    36    37   ar
    39    36    39    1
    40    37    41    1
    41    38    40    2
    42    38    42    1
