@<TRIPOS>MOLECULE
IMPHY015559
 27 27 0 0 0
SMALL
GASTEIGER

@<TRIPOS>ATOM
      1 O           2.0000   -2.5000    0.0000 O.2     1  UNL1       -0.3007
      2 C           2.8660    1.0000    0.0000 C.3     1  UNL1       -0.0204
      3 C           2.8660   -1.0000    0.0000 C.3     1  UNL1        0.0145
      4 C           2.0000    0.5000    0.0000 C.3     1  UNL1       -0.0459
      5 C           3.7320    0.5000    0.0000 C.3     1  UNL1       -0.0459
      6 C           2.0000   -0.5000    0.0000 C.3     1  UNL1       -0.0432
      7 C           3.7320   -0.5000    0.0000 C.3     1  UNL1       -0.0432
      8 C           2.8660    2.0000    0.0000 C.2     1  UNL1       -0.0766
      9 C           2.8660   -2.0000    0.0000 C.2     1  UNL1        0.1234
     10 C           3.7320    2.5000    0.0000 C.3     1  UNL1       -0.0438
     11 C           2.0000    2.5000    0.0000 C.2     1  UNL1       -0.0994
     12 H           3.4030    1.3100    0.0000 H       1  UNL1        0.0345
     13 H           3.4030   -1.3100    0.0000 H       1  UNL1        0.0374
     14 H           1.7880    1.0826    0.0000 H       1  UNL1        0.0271
     15 H           1.3894    0.3923    0.0000 H       1  UNL1        0.0271
     16 H           4.3426    0.3923    0.0000 H       1  UNL1        0.0271
     17 H           3.9441    1.0826    0.0000 H       1  UNL1        0.0271
     18 H           1.3894   -0.3923    0.0000 H       1  UNL1        0.0272
     19 H           1.7880   -1.0826    0.0000 H       1  UNL1        0.0272
     20 H           3.9441   -1.0826    0.0000 H       1  UNL1        0.0272
     21 H           4.3426   -0.3923    0.0000 H       1  UNL1        0.0272
     22 H           3.4030   -2.3100    0.0000 H       1  UNL1        0.1029
     23 H           4.0420    1.9631    0.0000 H       1  UNL1        0.0274
     24 H           4.2690    2.8100    0.0000 H       1  UNL1        0.0274
     25 H           3.4220    3.0369    0.0000 H       1  UNL1        0.0274
     26 H           2.0000    3.1200    0.0000 H       1  UNL1        0.0534
     27 H           1.4631    2.1900    0.0000 H       1  UNL1        0.0534
@<TRIPOS>BOND
     1     1     9    2
     2     2     4    1
     3     2     5    1
     4     2     8    1
     5     2    12    1
     6     3     6    1
     7     3     7    1
     8     3     9    1
     9     3    13    1
    10     4     6    1
    11     4    14    1
    12     4    15    1
    13     5     7    1
    14     5    16    1
    15     5    17    1
    16     6    18    1
    17     6    19    1
    18     7    20    1
    19     7    21    1
    20     8    10    1
    21     8    11    2
    22     9    22    1
    23    10    23    1
    24    10    24    1
    25    10    25    1
    26    11    26    1
    27    11    27    1
