@<TRIPOS>MOLECULE
IMPHY016164
 24 24 0 0 0
SMALL
GASTEIGER

@<TRIPOS>ATOM
      1 C           2.8660    0.0000    0.0000 C.3     1  UNL1       -0.0413
      2 C           3.7320    0.5000    0.0000 C.3     1  UNL1       -0.0413
      3 C           2.8660   -1.0000    0.0000 C.3     1  UNL1       -0.0502
      4 C           4.5981   -0.0000    0.0000 C.3     1  UNL1       -0.0502
      5 C           3.7320   -1.5000    0.0000 C.3     1  UNL1       -0.0528
      6 C           4.5981   -1.0000    0.0000 C.3     1  UNL1       -0.0528
      7 C           2.0000    0.5000    0.0000 C.3     1  UNL1       -0.0622
      8 C           3.7320    1.5000    0.0000 C.3     1  UNL1       -0.0622
      9 H           2.8660    0.6200    0.0000 H       1  UNL1        0.0301
     10 H           4.2690    0.8100    0.0000 H       1  UNL1        0.0301
     11 H           2.2554   -0.8923    0.0000 H       1  UNL1        0.0268
     12 H           2.6540   -1.5826    0.0000 H       1  UNL1        0.0268
     13 H           5.2087   -0.1077    0.0000 H       1  UNL1        0.0268
     14 H           4.8101    0.5826    0.0000 H       1  UNL1        0.0268
     15 H           3.3335   -1.9750    0.0000 H       1  UNL1        0.0265
     16 H           4.1306   -1.9750    0.0000 H       1  UNL1        0.0265
     17 H           4.8101   -1.5826    0.0000 H       1  UNL1        0.0265
     18 H           5.2087   -0.8923    0.0000 H       1  UNL1        0.0265
     19 H           2.3100    1.0369    0.0000 H       1  UNL1        0.0233
     20 H           1.4631    0.8100    0.0000 H       1  UNL1        0.0233
     21 H           1.6900   -0.0369    0.0000 H       1  UNL1        0.0233
     22 H           4.3520    1.5000    0.0000 H       1  UNL1        0.0233
     23 H           3.7320    2.1200    0.0000 H       1  UNL1        0.0233
     24 H           3.1120    1.5000    0.0000 H       1  UNL1        0.0233
@<TRIPOS>BOND
     1     1     2    1
     2     1     3    1
     3     1     7    1
     4     1     9    1
     5     2     4    1
     6     2     8    1
     7     2    10    1
     8     3     5    1
     9     3    11    1
    10     3    12    1
    11     4     6    1
    12     4    13    1
    13     4    14    1
    14     5     6    1
    15     5    15    1
    16     5    16    1
    17     6    17    1
    18     6    18    1
    19     7    19    1
    20     7    20    1
    21     7    21    1
    22     8    22    1
    23     8    23    1
    24     8    24    1
