@<TRIPOS>MOLECULE
IMPHY008163
 18 18 0 0 0
SMALL
GASTEIGER

@<TRIPOS>ATOM
      1 N           3.7320   -1.0000    0.0000 N.ar    1  UNL1       -0.2596
      2 C           2.8660   -0.5000    0.0000 C.ar    1  UNL1        0.0382
      3 C           4.5981    0.5000    0.0000 C.ar    1  UNL1       -0.0074
      4 C           2.8660    0.5000    0.0000 C.ar    1  UNL1       -0.0401
      5 C           3.7320    1.0000    0.0000 C.ar    1  UNL1       -0.0515
      6 C           4.5981   -0.5000    0.0000 C.ar    1  UNL1        0.0350
      7 C           2.0000   -1.0000    0.0000 C.3     1  UNL1       -0.0224
      8 C           5.4641    1.0000    0.0000 C.2     1  UNL1       -0.0603
      9 C           6.3301    0.5000    0.0000 C.2     1  UNL1       -0.0981
     10 H           2.3291    0.8100    0.0000 H       1  UNL1        0.0636
     11 H           3.7320    1.6200    0.0000 H       1  UNL1        0.0624
     12 H           5.1350   -0.8100    0.0000 H       1  UNL1        0.0835
     13 H           1.6900   -0.4631    0.0000 H       1  UNL1        0.0292
     14 H           1.4631   -1.3100    0.0000 H       1  UNL1        0.0292
     15 H           2.3100   -1.5369    0.0000 H       1  UNL1        0.0292
     16 H           5.4641    1.6200    0.0000 H       1  UNL1        0.0618
     17 H           6.3301   -0.1200    0.0000 H       1  UNL1        0.0535
     18 H           6.8671    0.8100    0.0000 H       1  UNL1        0.0535
@<TRIPOS>BOND
     1     1     2   ar
     2     1     6   ar
     3     2     4   ar
     4     2     7    1
     5     3     5   ar
     6     3     6   ar
     7     3     8    1
     8     4     5   ar
     9     4    10    1
    10     5    11    1
    11     6    12    1
    12     7    13    1
    13     7    14    1
    14     7    15    1
    15     8     9    2
    16     8    16    1
    17     9    17    1
    18     9    18    1
