@<TRIPOS>MOLECULE
IMPHY015993
 38 38 0 0 0
SMALL
GASTEIGER

@<TRIPOS>ATOM
      1 O           2.0000   -4.0000    0.0000 O.2     1  UNL1       -0.2960
      2 C           2.8660    0.5000    0.0000 C.3     1  UNL1       -0.0221
      3 C           2.8660   -0.5000    0.0000 C.2     1  UNL1       -0.0664
      4 C           3.7320    1.0000    0.0000 C.3     1  UNL1       -0.0433
      5 C           2.0000   -1.0000    0.0000 C.3     1  UNL1       -0.0271
      6 C           2.0000   -2.0000    0.0000 C.3     1  UNL1       -0.0210
      7 C           3.7320    2.0000    0.0000 C.3     1  UNL1       -0.0340
      8 C           2.0000    1.0000    0.0000 C.3     1  UNL1       -0.0587
      9 C           3.7320   -1.0000    0.0000 C.2     1  UNL1       -0.0619
     10 C           2.8660   -2.5000    0.0000 C.2     1  UNL1       -0.0079
     11 C           3.7320   -2.0000    0.0000 C.2     1  UNL1       -0.0556
     12 C           4.5981    2.5000    0.0000 C.2     1  UNL1       -0.0853
     13 C           4.5981    3.5000    0.0000 C.2     1  UNL1       -0.0796
     14 C           2.8660   -3.5000    0.0000 C.2     1  UNL1        0.1463
     15 C           5.4641    4.0000    0.0000 C.3     1  UNL1       -0.0440
     16 C           3.7320    4.0000    0.0000 C.3     1  UNL1       -0.0440
     17 H           2.8660    1.1200    0.0000 H       1  UNL1        0.0343
     18 H           3.9441    0.4174    0.0000 H       1  UNL1        0.0274
     19 H           4.3426    1.1077    0.0000 H       1  UNL1        0.0274
     20 H           1.7880   -0.4174    0.0000 H       1  UNL1        0.0313
     21 H           1.3894   -1.1077    0.0000 H       1  UNL1        0.0313
     22 H           1.3894   -1.8923    0.0000 H       1  UNL1        0.0317
     23 H           1.7880   -2.5826    0.0000 H       1  UNL1        0.0317
     24 H           3.5200    2.5826    0.0000 H       1  UNL1        0.0308
     25 H           3.1215    1.8923    0.0000 H       1  UNL1        0.0308
     26 H           2.3100    1.5369    0.0000 H       1  UNL1        0.0235
     27 H           1.4631    1.3100    0.0000 H       1  UNL1        0.0235
     28 H           1.6900    0.4631    0.0000 H       1  UNL1        0.0235
     29 H           4.2690   -0.6900    0.0000 H       1  UNL1        0.0617
     30 H           4.2690   -2.3100    0.0000 H       1  UNL1        0.0621
     31 H           5.1350    2.1900    0.0000 H       1  UNL1        0.0571
     32 H           3.4030   -3.8100    0.0000 H       1  UNL1        0.1078
     33 H           5.7741    3.4631    0.0000 H       1  UNL1        0.0274
     34 H           6.0010    4.3100    0.0000 H       1  UNL1        0.0274
     35 H           5.1541    4.5369    0.0000 H       1  UNL1        0.0274
     36 H           4.0420    4.5369    0.0000 H       1  UNL1        0.0274
     37 H           3.1951    4.3100    0.0000 H       1  UNL1        0.0274
     38 H           3.4220    3.4631    0.0000 H       1  UNL1        0.0274
@<TRIPOS>BOND
     1     1    14    2
     2     2     3    1
     3     2     4    1
     4     2     8    1
     5     2    17    1
     6     3     5    1
     7     3     9    2
     8     4     7    1
     9     4    18    1
    10     4    19    1
    11     5     6    1
    12     5    20    1
    13     5    21    1
    14     6    10    1
    15     6    22    1
    16     6    23    1
    17     7    12    1
    18     7    24    1
    19     7    25    1
    20     8    26    1
    21     8    27    1
    22     8    28    1
    23     9    11    1
    24     9    29    1
    25    10    11    2
    26    10    14    1
    27    11    30    1
    28    12    13    2
    29    12    31    1
    30    13    15    1
    31    13    16    1
    32    14    32    1
    33    15    33    1
    34    15    34    1
    35    15    35    1
    36    16    36    1
    37    16    37    1
    38    16    38    1
