@<TRIPOS>MOLECULE
IMPHY004889
 20 20 0 0 0
SMALL
GASTEIGER

@<TRIPOS>ATOM
      1 O           4.5981    2.1900    0.0000 O.3     1  UNL1       -0.3910
      2 C           2.8660   -0.8100    0.0000 C.ar    1  UNL1       -0.0253
      3 C           2.8660    0.1900    0.0000 C.2     1  UNL1       -0.0564
      4 C           2.0000   -1.3100    0.0000 C.ar    1  UNL1       -0.0546
      5 C           3.7320   -1.3100    0.0000 C.ar    1  UNL1       -0.0546
      6 C           2.0000   -2.3100    0.0000 C.ar    1  UNL1       -0.0612
      7 C           3.7320   -2.3100    0.0000 C.ar    1  UNL1       -0.0612
      8 C           3.7320    0.6900    0.0000 C.2     1  UNL1       -0.0584
      9 C           2.8660   -2.8100    0.0000 C.ar    1  UNL1       -0.0617
     10 C           3.7320    1.6900    0.0000 C.3     1  UNL1        0.0627
     11 H           2.3291    0.5000    0.0000 H       1  UNL1        0.0621
     12 H           1.4631   -1.0000    0.0000 H       1  UNL1        0.0623
     13 H           4.2690   -1.0000    0.0000 H       1  UNL1        0.0623
     14 H           1.4631   -2.6200    0.0000 H       1  UNL1        0.0618
     15 H           4.2690   -2.6200    0.0000 H       1  UNL1        0.0618
     16 H           4.2690    0.3800    0.0000 H       1  UNL1        0.0595
     17 H           2.8660   -3.4300    0.0000 H       1  UNL1        0.0618
     18 H           3.5200    2.2726    0.0000 H       1  UNL1        0.0601
     19 H           3.1215    1.5823    0.0000 H       1  UNL1        0.0601
     20 H           4.5981    2.8100    0.0000 H       1  UNL1        0.2098
@<TRIPOS>BOND
     1     1    10    1
     2     1    20    1
     3     2     3    1
     4     2     4   ar
     5     2     5   ar
     6     3     8    2
     7     3    11    1
     8     4     6   ar
     9     4    12    1
    10     5     7   ar
    11     5    13    1
    12     6     9   ar
    13     6    14    1
    14     7     9   ar
    15     7    15    1
    16     8    10    1
    17     8    16    1
    18     9    17    1
    19    10    18    1
    20    10    19    1
