@<TRIPOS>MOLECULE
IMPHY005377
 41 42 0 0 0
SMALL
GASTEIGER

@<TRIPOS>ATOM
      1 O           2.5369   -1.1429    0.0000 O.3     1  UNL1       -0.3914
      2 O           4.2690    1.8571    0.0000 O.3     1  UNL1       -0.3874
      3 C           5.1350   -0.6429    0.0000 C.3     1  UNL1       -0.0032
      4 C           4.2690   -1.1429    0.0000 C.3     1  UNL1       -0.0085
      5 C           6.0290   -1.1776    0.0000 C.3     1  UNL1       -0.0367
      6 C           5.1350    0.3571    0.0000 C.2     1  UNL1       -0.0390
      7 C           3.4030   -0.6429    0.0000 C.3     1  UNL1        0.0612
      8 C           6.9350   -0.6637    0.0000 C.3     1  UNL1       -0.0162
      9 C           4.2690    0.8571    0.0000 C.3     1  UNL1        0.0791
     10 C           3.4030    0.3571    0.0000 C.3     1  UNL1        0.0034
     11 C           5.1350   -1.6429    0.0000 C.3     1  UNL1       -0.0554
     12 C           6.9350    0.3779    0.0000 C.3     1  UNL1       -0.0279
     13 C           6.0290    0.8917    0.0000 C.2     1  UNL1       -0.0813
     14 C           4.2690   -2.1429    0.0000 C.3     1  UNL1       -0.0593
     15 C           7.7991   -1.1671    0.0000 C.2     1  UNL1       -0.0763
     16 C           8.6671   -0.6704    0.0000 C.3     1  UNL1       -0.0438
     17 C           7.7953   -2.1671    0.0000 C.2     1  UNL1       -0.0994
     18 H           3.7320   -1.4529    0.0000 H       1  UNL1        0.0331
     19 H           5.6244   -1.6474    0.0000 H       1  UNL1        0.0279
     20 H           6.4226   -1.6566    0.0000 H       1  UNL1        0.0279
     21 H           2.8660   -0.3329    0.0000 H       1  UNL1        0.0597
     22 H           7.4726   -0.3548    0.0000 H       1  UNL1        0.0349
     23 H           4.8059    1.1671    0.0000 H       1  UNL1        0.0641
     24 H           3.1909    0.9397    0.0000 H       1  UNL1        0.0318
     25 H           2.7924    0.2494    0.0000 H       1  UNL1        0.0318
     26 H           4.5150   -1.6429    0.0000 H       1  UNL1        0.0238
     27 H           5.1350   -2.2629    0.0000 H       1  UNL1        0.0238
     28 H           5.7550   -1.6429    0.0000 H       1  UNL1        0.0238
     29 H           7.5459    0.2718    0.0000 H       1  UNL1        0.0313
     30 H           7.1441    0.9616    0.0000 H       1  UNL1        0.0313
     31 H           6.0218    1.5117    0.0000 H       1  UNL1        0.0573
     32 H           3.6490   -2.1429    0.0000 H       1  UNL1        0.0233
     33 H           4.2690   -2.7629    0.0000 H       1  UNL1        0.0233
     34 H           4.8890   -2.1429    0.0000 H       1  UNL1        0.0233
     35 H           2.0000   -0.8329    0.0000 H       1  UNL1        0.2098
     36 H           3.7320    2.1671    0.0000 H       1  UNL1        0.2102
     37 H           8.9750   -1.2086    0.0000 H       1  UNL1        0.0274
     38 H           9.2052   -0.3625    0.0000 H       1  UNL1        0.0274
     39 H           8.3591   -0.1323    0.0000 H       1  UNL1        0.0274
     40 H           7.2571   -2.4750    0.0000 H       1  UNL1        0.0534
     41 H           8.3310   -2.4791    0.0000 H       1  UNL1        0.0534
@<TRIPOS>BOND
     1     7     1    1
     2     1    35    1
     3     9     2    1
     4     2    36    1
     5     3     4    1
     6     3     5    1
     7     3     6    1
     8     3    11    1
     9     4     7    1
    10     4    14    1
    11     4    18    1
    12     5     8    1
    13     5    19    1
    14     5    20    1
    15     6     9    1
    16     6    13    2
    17     7    10    1
    18     7    21    1
    19     8    12    1
    20     8    15    1
    21     8    22    1
    22     9    10    1
    23     9    23    1
    24    10    24    1
    25    10    25    1
    26    11    26    1
    27    11    27    1
    28    11    28    1
    29    12    13    1
    30    12    29    1
    31    12    30    1
    32    13    31    1
    33    14    32    1
    34    14    33    1
    35    14    34    1
    36    15    16    1
    37    15    17    2
    38    16    37    1
    39    16    38    1
    40    16    39    1
    41    17    40    1
    42    17    41    1
