@<TRIPOS>MOLECULE
IMPHY010981
 115 122 0 0 0
SMALL
GASTEIGER

@<TRIPOS>ATOM
      1 O           8.6192    5.5403    0.0000 O.3     1  UNL1       -0.3448
      2 O           6.8468    6.4351    0.0000 O.3     1  UNL1       -0.3480
      3 O           5.4934    3.4864    0.0000 O.2     1  UNL1       -0.2968
      4 O           7.1962   -2.7038    0.0000 O.3     1  UNL1       -0.3454
      5 O           5.4641   -2.7038    0.0000 O.3     1  UNL1       -0.3405
      6 O           7.1962   -4.7038    0.0000 O.3     1  UNL1       -0.3841
      7 O           5.4641   -5.7038    0.0000 O.3     1  UNL1       -0.3864
      8 O           3.7320   -4.7038    0.0000 O.3     1  UNL1       -0.3401
      9 O           3.7320   -1.7038    0.0000 O.3     1  UNL1       -0.3924
     10 O           4.5981   -6.2038    0.0000 O.3     1  UNL1       -0.3405
     11 O           2.0000   -5.7038    0.0000 O.3     1  UNL1       -0.3841
     12 O           2.0000   -7.7038    0.0000 O.3     1  UNL1       -0.3864
     13 O           3.7320   -8.7038    0.0000 O.3     1  UNL1       -0.3865
     14 O           6.3301   -7.2038    0.0000 O.3     1  UNL1       -0.3924
     15 C           8.0934    2.9965    0.0000 C.3     1  UNL1       -0.0231
     16 C           7.2254    3.4931    0.0000 C.3     1  UNL1        0.0349
     17 C           8.0972    1.9965    0.0000 C.3     1  UNL1       -0.0335
     18 C           7.4309    4.4657    0.0000 C.3     1  UNL1        0.0052
     19 C           7.2331    1.4931    0.0000 C.3     1  UNL1       -0.0256
     20 C           7.2211    0.4516    0.0000 C.3     1  UNL1       -0.0256
     21 C           8.4192    4.5726    0.0000 C.3     1  UNL1        0.0664
     22 C           8.8278    3.6664    0.0000 C.3     1  UNL1       -0.0222
     23 C           7.0286    5.3683    0.0000 C.3     1  UNL1        0.0164
     24 C           8.1211   -0.0727    0.0000 C.3     1  UNL1       -0.0330
     25 C           6.3652    1.9898    0.0000 C.3     1  UNL1        0.0100
     26 C           9.0092    1.4931    0.0000 C.3     1  UNL1       -0.0494
     27 C           6.3613    2.9898    0.0000 C.2     1  UNL1        0.1401
     28 C           7.7615    6.0311    0.0000 C.3     1  UNL1        0.1732
     29 C           9.0212    0.4516    0.0000 C.3     1  UNL1       -0.0494
     30 C           6.2712   -0.0727    0.0000 C.3     1  UNL1       -0.0448
     31 C           6.3575    3.9898    0.0000 C.3     1  UNL1       -0.0522
     32 C           8.1337   -1.1576    0.0000 C.3     1  UNL1       -0.0232
     33 C           6.3570    0.9549    0.0000 C.3     1  UNL1       -0.0590
     34 C           6.2586   -1.1576    0.0000 C.3     1  UNL1       -0.0260
     35 C           7.1962   -1.7038    0.0000 C.3     1  UNL1        0.0621
     36 C           6.0502    5.5750    0.0000 C.3     1  UNL1       -0.0572
     37 C           8.5688    6.6213    0.0000 C.3     1  UNL1        0.0020
     38 C           8.4613    7.6155    0.0000 C.3     1  UNL1       -0.0435
     39 C           7.5465    8.0195    0.0000 C.3     1  UNL1       -0.0201
     40 C           6.7393    7.4293    0.0000 C.3     1  UNL1        0.0535
     41 C           7.4390    9.0138    0.0000 C.3     1  UNL1       -0.0603
     42 C           6.3301   -3.2038    0.0000 C.3     1  UNL1        0.1882
     43 C           6.3301   -4.2038    0.0000 C.3     1  UNL1        0.1341
     44 C           5.4641   -4.7038    0.0000 C.3     1  UNL1        0.1144
     45 C           4.5981   -3.2038    0.0000 C.3     1  UNL1        0.1134
     46 C           4.5981   -4.2038    0.0000 C.3     1  UNL1        0.1184
     47 C           3.7320   -2.7038    0.0000 C.3     1  UNL1        0.0730
     48 C           3.7320   -5.7038    0.0000 C.3     1  UNL1        0.1884
     49 C           2.8660   -6.2038    0.0000 C.3     1  UNL1        0.1341
     50 C           2.8660   -7.2038    0.0000 C.3     1  UNL1        0.1141
     51 C           4.5981   -7.2038    0.0000 C.3     1  UNL1        0.1130
     52 C           3.7320   -7.7038    0.0000 C.3     1  UNL1        0.1119
     53 C           5.4641   -7.7038    0.0000 C.3     1  UNL1        0.0730
     54 H           8.8716    2.6548    0.0000 H       1  UNL1        0.0314
     55 H           8.8284    2.4300    0.0000 H       1  UNL1        0.0307
     56 H           6.5856    4.3762    0.0000 H       1  UNL1        0.0339
     57 H           7.9676    1.0653    0.0000 H       1  UNL1        0.0313
     58 H           9.2641    4.6658    0.0000 H       1  UNL1        0.0600
     59 H           9.1952    3.1670    0.0000 H       1  UNL1        0.0293
     60 H           9.3631    3.9792    0.0000 H       1  UNL1        0.0293
     61 H           6.6388    4.8862    0.0000 H       1  UNL1        0.0354
     62 H           8.8605   -0.4920    0.0000 H       1  UNL1        0.0307
     63 H           5.7542    2.0951    0.0000 H       1  UNL1        0.0345
     64 H           6.1554    1.4064    0.0000 H       1  UNL1        0.0345
     65 H           9.6212    1.3941    0.0000 H       1  UNL1        0.0268
     66 H           9.2114    2.0792    0.0000 H       1  UNL1        0.0268
     67 H           9.2370   -0.1297    0.0000 H       1  UNL1        0.0268
     68 H           9.6308    0.5647    0.0000 H       1  UNL1        0.0268
     69 H           6.0689    0.5134    0.0000 H       1  UNL1        0.0271
     70 H           5.6591   -0.1717    0.0000 H       1  UNL1        0.0271
     71 H           6.6654    4.5279    0.0000 H       1  UNL1        0.0239
     72 H           5.8193    4.2977    0.0000 H       1  UNL1        0.0239
     73 H           6.0495    3.4517    0.0000 H       1  UNL1        0.0239
     74 H           8.3495   -1.7389    0.0000 H       1  UNL1        0.0293
     75 H           8.7433   -1.0445    0.0000 H       1  UNL1        0.0293
     76 H           6.6690    1.4906    0.0000 H       1  UNL1        0.0235
     77 H           5.8212    1.2670    0.0000 H       1  UNL1        0.0235
     78 H           6.0449    0.4192    0.0000 H       1  UNL1        0.0235
     79 H           5.6490   -1.0445    0.0000 H       1  UNL1        0.0290
     80 H           6.0428   -1.7389    0.0000 H       1  UNL1        0.0290
     81 H           7.7337   -2.0127    0.0000 H       1  UNL1        0.0597
     82 H           6.1783    6.1816    0.0000 H       1  UNL1        0.0234
     83 H           5.4436    5.7032    0.0000 H       1  UNL1        0.0234
     84 H           5.9220    4.9684    0.0000 H       1  UNL1        0.0234
     85 H           8.8422    6.0649    0.0000 H       1  UNL1        0.0317
     86 H           9.1643    6.7940    0.0000 H       1  UNL1        0.0317
     87 H           9.0799    7.5741    0.0000 H       1  UNL1        0.0270
     88 H           8.6095    8.2176    0.0000 H       1  UNL1        0.0270
     89 H           8.0470    8.3855    0.0000 H       1  UNL1        0.0320
     90 H           6.4658    7.9858    0.0000 H       1  UNL1        0.0563
     91 H           6.1438    7.2567    0.0000 H       1  UNL1        0.0563
     92 H           8.0554    9.0804    0.0000 H       1  UNL1        0.0233
     93 H           7.3724    9.6302    0.0000 H       1  UNL1        0.0233
     94 H           6.8226    8.9471    0.0000 H       1  UNL1        0.0233
     95 H           6.3301   -2.5838    0.0000 H       1  UNL1        0.0937
     96 H           6.3301   -4.8238    0.0000 H       1  UNL1        0.0671
     97 H           4.9272   -5.0138    0.0000 H       1  UNL1        0.0648
     98 H           4.5981   -2.5838    0.0000 H       1  UNL1        0.0647
     99 H           4.0611   -3.8938    0.0000 H       1  UNL1        0.0651
    100 H           7.7331   -4.3938    0.0000 H       1  UNL1        0.2101
    101 H           3.1215   -2.5961    0.0000 H       1  UNL1        0.0584
    102 H           3.5200   -3.2864    0.0000 H       1  UNL1        0.0584
    103 H           6.0010   -6.0138    0.0000 H       1  UNL1        0.2100
    104 H           3.1951   -5.3938    0.0000 H       1  UNL1        0.0938
    105 H           3.1951   -1.3938    0.0000 H       1  UNL1        0.2095
    106 H           3.4281   -5.5838    0.0000 H       1  UNL1        0.0671
    107 H           2.8660   -7.8238    0.0000 H       1  UNL1        0.0648
    108 H           5.1350   -6.8938    0.0000 H       1  UNL1        0.0647
    109 H           4.2690   -8.0138    0.0000 H       1  UNL1        0.0647
    110 H           2.0000   -5.0838    0.0000 H       1  UNL1        0.2101
    111 H           5.0656   -8.1787    0.0000 H       1  UNL1        0.0584
    112 H           5.8626   -8.1787    0.0000 H       1  UNL1        0.0584
    113 H           2.0000   -8.3238    0.0000 H       1  UNL1        0.2100
    114 H           4.2690   -9.0138    0.0000 H       1  UNL1        0.2100
    115 H           6.8671   -7.5138    0.0000 H       1  UNL1        0.2095
@<TRIPOS>BOND
     1     1    21    1
     2    28     1    1
     3     2    28    1
     4     2    40    1
     5     3    27    2
     6    35     4    1
     7    42     4    1
     8     5    42    1
     9     5    45    1
    10    43     6    1
    11     6   100    1
    12    44     7    1
    13     7   103    1
    14    46     8    1
    15    48     8    1
    16     9    47    1
    17     9   105    1
    18    10    48    1
    19    10    51    1
    20    49    11    1
    21    11   110    1
    22    50    12    1
    23    12   113    1
    24    52    13    1
    25    13   114    1
    26    14    53    1
    27    14   115    1
    28    15    16    1
    29    15    17    1
    30    15    22    1
    31    15    54    1
    32    16    18    1
    33    16    27    1
    34    16    31    1
    35    17    19    1
    36    17    26    1
    37    17    55    1
    38    18    21    1
    39    18    23    1
    40    18    56    1
    41    19    20    1
    42    19    25    1
    43    19    57    1
    44    20    24    1
    45    20    30    1
    46    20    33    1
    47    21    22    1
    48    21    58    1
    49    22    59    1
    50    22    60    1
    51    23    28    1
    52    23    36    1
    53    23    61    1
    54    24    29    1
    55    24    32    1
    56    24    62    1
    57    25    27    1
    58    25    63    1
    59    25    64    1
    60    26    29    1
    61    26    65    1
    62    26    66    1
    63    28    37    1
    64    29    67    1
    65    29    68    1
    66    30    34    1
    67    30    69    1
    68    30    70    1
    69    31    71    1
    70    31    72    1
    71    31    73    1
    72    32    35    1
    73    32    74    1
    74    32    75    1
    75    33    76    1
    76    33    77    1
    77    33    78    1
    78    34    35    1
    79    34    79    1
    80    34    80    1
    81    35    81    1
    82    36    82    1
    83    36    83    1
    84    36    84    1
    85    37    38    1
    86    37    85    1
    87    37    86    1
    88    38    39    1
    89    38    87    1
    90    38    88    1
    91    39    40    1
    92    39    41    1
    93    39    89    1
    94    40    90    1
    95    40    91    1
    96    41    92    1
    97    41    93    1
    98    41    94    1
    99    42    43    1
   100    42    95    1
   101    43    44    1
   102    43    96    1
   103    44    46    1
   104    44    97    1
   105    45    46    1
   106    45    47    1
   107    45    98    1
   108    46    99    1
   109    47   101    1
   110    47   102    1
   111    48    49    1
   112    48   104    1
   113    49    50    1
   114    49   106    1
   115    50    52    1
   116    50   107    1
   117    51    52    1
   118    51    53    1
   119    51   108    1
   120    52   109    1
   121    53   111    1
   122    53   112    1
