@<TRIPOS>MOLECULE
IMPHY012462
 52 54 0 0 0
SMALL
GASTEIGER

@<TRIPOS>ATOM
      1 O           2.3038   -2.4249    0.0000 O.3     1  UNL1       -0.4802
      2 O           3.8137   -3.2735    0.0000 O.2     1  UNL1       -0.2504
      3 C           4.6876   -0.0069    0.0000 C.3     1  UNL1       -0.0217
      4 C           4.6876   -1.0069    0.0000 C.3     1  UNL1       -0.0193
      5 C           5.5536    0.4931    0.0000 C.3     1  UNL1       -0.0142
      6 C           3.7937   -1.5416    0.0000 C.3     1  UNL1        0.0681
      7 C           3.7937    0.5277    0.0000 C.3     1  UNL1       -0.0468
      8 C           5.5536   -1.5069    0.0000 C.3     1  UNL1       -0.0450
      9 C           6.4196   -0.0069    0.0000 C.2     1  UNL1       -0.0690
     10 C           2.8876   -1.0278    0.0000 C.3     1  UNL1       -0.0372
     11 C           2.8876    0.0139    0.0000 C.3     1  UNL1       -0.0515
     12 C           5.5376    1.5346    0.0000 C.3     1  UNL1       -0.0449
     13 C           6.4196   -1.0069    0.0000 C.3     1  UNL1       -0.0311
     14 C           4.6876    0.9931    0.0000 C.3     1  UNL1       -0.0587
     15 C           6.4356    2.0623    0.0000 C.3     1  UNL1       -0.0401
     16 C           7.3377    1.5415    0.0000 C.3     1  UNL1        0.0039
     17 C           4.3036   -2.4018    0.0000 C.3     1  UNL1       -0.0491
     18 C           7.3296    0.4999    0.0000 C.2     1  UNL1       -0.0749
     19 C           3.3037   -2.4134    0.0000 C.2     1  UNL1        0.3110
     20 C           8.3377    1.5376    0.0000 C.3     1  UNL1       -0.0526
     21 C           7.8410    2.4056    0.0000 C.2     1  UNL1       -0.0815
     22 C           7.3444    3.2735    0.0000 C.2     1  UNL1       -0.1018
     23 H           4.6941   -1.8569    0.0000 H       1  UNL1        0.0317
     24 H           6.2864    0.9237    0.0000 H       1  UNL1        0.0351
     25 H           4.1982    0.9975    0.0000 H       1  UNL1        0.0271
     26 H           3.4000    1.0067    0.0000 H       1  UNL1        0.0271
     27 H           5.1551   -1.9819    0.0000 H       1  UNL1        0.0271
     28 H           5.9521   -1.9819    0.0000 H       1  UNL1        0.0271
     29 H           2.2767   -0.9217    0.0000 H       1  UNL1        0.0276
     30 H           2.6785   -1.6114    0.0000 H       1  UNL1        0.0276
     31 H           2.6785    0.5976    0.0000 H       1  UNL1        0.0266
     32 H           2.2767   -0.0922    0.0000 H       1  UNL1        0.0266
     33 H           5.3195    2.1150    0.0000 H       1  UNL1        0.0272
     34 H           4.9284    1.4191    0.0000 H       1  UNL1        0.0272
     35 H           6.6317   -1.5896    0.0000 H       1  UNL1        0.0310
     36 H           7.0302   -0.8993    0.0000 H       1  UNL1        0.0310
     37 H           5.3076    0.9931    0.0000 H       1  UNL1        0.0235
     38 H           4.6876    1.6131    0.0000 H       1  UNL1        0.0235
     39 H           4.0676    0.9931    0.0000 H       1  UNL1        0.0235
     40 H           6.8329    2.5383    0.0000 H       1  UNL1        0.0277
     41 H           6.0346    2.5352    0.0000 H       1  UNL1        0.0277
     42 H           3.7703   -2.7180    0.0000 H       1  UNL1        0.0240
     43 H           4.6198   -2.9351    0.0000 H       1  UNL1        0.0240
     44 H           4.8370   -2.0856    0.0000 H       1  UNL1        0.0240
     45 H           7.8630    0.1837    0.0000 H       1  UNL1        0.0580
     46 H           8.3353    0.9177    0.0000 H       1  UNL1        0.0241
     47 H           8.9577    1.5353    0.0000 H       1  UNL1        0.0241
     48 H           8.3401    2.1576    0.0000 H       1  UNL1        0.0241
     49 H           8.4610    2.4032    0.0000 H       1  UNL1        0.0575
     50 H           2.0000   -2.9654    0.0000 H       1  UNL1        0.2951
     51 H           7.6564    3.8093    0.0000 H       1  UNL1        0.0532
     52 H           6.7244    3.2759    0.0000 H       1  UNL1        0.0532
@<TRIPOS>BOND
     1     1    19    1
     2     1    50    1
     3     2    19    2
     4     3     4    1
     5     3     5    1
     6     3     7    1
     7     3    14    1
     8     4     6    1
     9     4     8    1
    10     4    23    1
    11     5     9    1
    12     5    12    1
    13     5    24    1
    14     6    10    1
    15     6    17    1
    16     6    19    1
    17     7    11    1
    18     7    25    1
    19     7    26    1
    20     8    13    1
    21     8    27    1
    22     8    28    1
    23     9    13    1
    24     9    18    2
    25    10    11    1
    26    10    29    1
    27    10    30    1
    28    11    31    1
    29    11    32    1
    30    12    15    1
    31    12    33    1
    32    12    34    1
    33    13    35    1
    34    13    36    1
    35    14    37    1
    36    14    38    1
    37    14    39    1
    38    15    16    1
    39    15    40    1
    40    15    41    1
    41    16    18    1
    42    16    20    1
    43    16    21    1
    44    17    42    1
    45    17    43    1
    46    17    44    1
    47    18    45    1
    48    20    46    1
    49    20    47    1
    50    20    48    1
    51    21    22    2
    52    21    49    1
    53    22    51    1
    54    22    52    1
