@<TRIPOS>MOLECULE
IMPHY008045
 39 41 0 0 0
SMALL
GASTEIGER

@<TRIPOS>ATOM
      1 O           3.7230   -0.8445    0.0000 O.3     1  UNL1       -0.4604
      2 O           4.5447    2.3208    0.0000 O.3     1  UNL1       -0.3911
      3 O           7.0268   -2.8331    0.0000 O.2     1  UNL1       -0.2971
      4 O           2.0000   -0.4124    0.0000 O.2     1  UNL1       -0.2505
      5 C           5.4786   -0.7708    0.0000 C.3     1  UNL1        0.0126
      6 C           4.5777   -0.3369    0.0000 C.3     1  UNL1        0.1130
      7 C           4.3551    0.6380    0.0000 C.3     1  UNL1        0.0353
      8 C           6.3796   -0.3369    0.0000 C.3     1  UNL1       -0.0066
      9 C           5.6146   -1.7555    0.0000 C.3     1  UNL1        0.0214
     10 C           4.9786    1.4199    0.0000 C.3     1  UNL1        0.0658
     11 C           3.3648    0.7246    0.0000 C.3     1  UNL1        0.0622
     12 C           7.0647   -1.0572    0.0000 C.3     1  UNL1        0.0130
     13 C           6.6021    0.6380    0.0000 C.2     1  UNL1       -0.0703
     14 C           5.9786    1.4199    0.0000 C.3     1  UNL1       -0.0052
     15 C           6.5929   -1.9322    0.0000 C.2     1  UNL1        0.1371
     16 C           2.9749   -0.1898    0.0000 C.2     1  UNL1        0.3107
     17 C           4.8930   -2.4478    0.0000 C.3     1  UNL1       -0.0553
     18 C           2.8504    1.5822    0.0000 C.3     1  UNL1       -0.0518
     19 C           7.5770    0.8606    0.0000 C.2     1  UNL1       -0.0991
     20 H           4.9775   -1.1358    0.0000 H       1  UNL1        0.0349
     21 H           4.6047   -0.9563    0.0000 H       1  UNL1        0.0741
     22 H           4.1107    1.2078    0.0000 H       1  UNL1        0.0370
     23 H           6.9775   -0.1727    0.0000 H       1  UNL1        0.0354
     24 H           5.0290   -1.5520    0.0000 H       1  UNL1        0.0379
     25 H           5.3085    1.9448    0.0000 H       1  UNL1        0.0600
     26 H           3.6936    1.2503    0.0000 H       1  UNL1        0.0415
     27 H           7.5765   -1.4072    0.0000 H       1  UNL1        0.0348
     28 H           7.4666   -0.5850    0.0000 H       1  UNL1        0.0348
     29 H           6.5372    1.6889    0.0000 H       1  UNL1        0.0335
     30 H           5.8407    2.0243    0.0000 H       1  UNL1        0.0335
     31 H           4.4638   -2.0004    0.0000 H       1  UNL1        0.0237
     32 H           4.4456   -2.8770    0.0000 H       1  UNL1        0.0237
     33 H           5.3223   -2.8952    0.0000 H       1  UNL1        0.0237
     34 H           3.3821    1.9011    0.0000 H       1  UNL1        0.0238
     35 H           2.5315    2.1138    0.0000 H       1  UNL1        0.0238
     36 H           2.3188    1.2632    0.0000 H       1  UNL1        0.0238
     37 H           7.9988    0.4061    0.0000 H       1  UNL1        0.0535
     38 H           7.7598    1.4530    0.0000 H       1  UNL1        0.0535
     39 H           4.8940    2.8331    0.0000 H       1  UNL1        0.2098
@<TRIPOS>BOND
     1     1     6    1
     2     1    16    1
     3     2    10    1
     4     2    39    1
     5     3    15    2
     6     4    16    2
     7     5     6    1
     8     5     8    1
     9     5     9    1
    10     5    20    1
    11     6     7    1
    12     6    21    1
    13     7    10    1
    14     7    11    1
    15     7    22    1
    16     8    12    1
    17     8    13    1
    18     8    23    1
    19     9    15    1
    20     9    17    1
    21     9    24    1
    22    10    14    1
    23    10    25    1
    24    11    16    1
    25    11    18    1
    26    11    26    1
    27    12    15    1
    28    12    27    1
    29    12    28    1
    30    13    14    1
    31    13    19    2
    32    14    29    1
    33    14    30    1
    34    17    31    1
    35    17    32    1
    36    17    33    1
    37    18    34    1
    38    18    35    1
    39    18    36    1
    40    19    37    1
    41    19    38    1
