@<TRIPOS>MOLECULE
IMPHY005870
 25 26 0 0 0
SMALL
GASTEIGER

@<TRIPOS>ATOM
      1 O           6.3301   -0.5950    0.0000 O.3     1  UNL1       -0.4530
      2 O           6.3301    2.4050    0.0000 O.2     1  UNL1       -0.5107
      3 O           8.0622   -0.5950    0.0000 O.2     1  UNL1       -0.2455
      4 O           2.0000   -2.0950    0.0000 O.3     1  UNL1       -0.5068
      5 C           5.4641   -0.0950    0.0000 C.3     1  UNL1        0.1351
      6 C           5.4641    0.9050    0.0000 C.3     1  UNL1        0.0463
      7 C           4.5981   -0.5950    0.0000 C.ar    1  UNL1       -0.0066
      8 C           6.3301    1.4050    0.0000 C.2     1  UNL1        0.1047
      9 C           3.7320   -0.0950    0.0000 C.ar    1  UNL1       -0.0516
     10 C           4.5981   -1.5950    0.0000 C.ar    1  UNL1       -0.0516
     11 C           7.1962    0.9050    0.0000 C.2     1  UNL1        0.0598
     12 C           7.1962   -0.0950    0.0000 C.2     1  UNL1        0.3357
     13 C           2.8660   -0.5950    0.0000 C.ar    1  UNL1       -0.0198
     14 C           3.7320   -2.0950    0.0000 C.ar    1  UNL1       -0.0198
     15 C           2.8660   -1.5950    0.0000 C.ar    1  UNL1        0.1169
     16 H           5.4641   -0.9450    0.0000 H       1  UNL1        0.0790
     17 H           5.2520    1.4876    0.0000 H       1  UNL1        0.0383
     18 H           4.8535    0.7973    0.0000 H       1  UNL1        0.0383
     19 H           3.7320    0.5250    0.0000 H       1  UNL1        0.0623
     20 H           5.1350   -1.9050    0.0000 H       1  UNL1        0.0623
     21 H           7.7331    1.2150    0.0000 H       1  UNL1        0.0722
     22 H           2.3291   -0.2850    0.0000 H       1  UNL1        0.0654
     23 H           3.7320   -2.7150    0.0000 H       1  UNL1        0.0654
     24 H           6.8671    2.7150    0.0000 H       1  UNL1        0.2916
     25 H           2.0000   -2.7150    0.0000 H       1  UNL1        0.2921
@<TRIPOS>BOND
     1     1     5    1
     2     1    12    1
     3     2     8    1
     4     2    24    1
     5     3    12    2
     6     4    15    1
     7     4    25    1
     8     5     6    1
     9     5     7    1
    10     5    16    1
    11     6     8    1
    12     6    17    1
    13     6    18    1
    14     7     9   ar
    15     7    10   ar
    16     8    11    2
    17     9    13   ar
    18     9    19    1
    19    10    14   ar
    20    10    20    1
    21    11    12    1
    22    11    21    1
    23    13    15   ar
    24    13    22    1
    25    14    15   ar
    26    14    23    1
