@<TRIPOS>MOLECULE
IMPHY009003
 59 65 0 0 0
SMALL
GASTEIGER

@<TRIPOS>ATOM
      1 O           2.2298    2.8874    0.0000 O.2     1  UNL1       -0.2631
      2 O           6.7960   -4.8889    0.0000 O.3     1  UNL1       -0.4929
      3 O           2.0000    0.8520    0.0000 O.2     1  UNL1       -0.2821
      4 O          10.6579   -1.8911    0.0000 O.3     1  UNL1       -0.4930
      5 N           5.6097    0.6283    0.0000 N.ar    1  UNL1       -0.3450
      6 N           3.9900    2.6992    0.0000 N.ar    1  UNL1       -0.2712
      7 N           8.4531   -1.9391    0.0000 N.ar    1  UNL1       -0.3498
      8 N           5.7247   -2.3940    0.0000 N.ar    1  UNL1       -0.2541
      9 C           4.7990    2.1114    0.0000 C.ar    1  UNL1        0.0815
     10 C           4.7061    1.0739    0.0000 C.ar    1  UNL1        0.0705
     11 C           5.6080    2.6992    0.0000 C.ar    1  UNL1        0.0114
     12 C           5.6590   -0.3705    0.0000 C.3     1  UNL1        0.0288
     13 C           5.2990    3.6502    0.0000 C.ar    1  UNL1        0.0082
     14 C           4.2990    3.6502    0.0000 C.ar    1  UNL1        0.0580
     15 C           6.5486   -0.8273    0.0000 C.3     1  UNL1        0.0096
     16 C           6.4643    2.1682    0.0000 C.ar    1  UNL1       -0.0357
     17 C           6.5978   -1.8260    0.0000 C.ar    1  UNL1        0.0670
     18 C           7.5226   -2.3054    0.0000 C.ar    1  UNL1        0.0727
     19 C           6.4651    1.1607    0.0000 C.ar    1  UNL1        0.0058
     20 C           7.5834   -3.3035    0.0000 C.ar    1  UNL1        0.0524
     21 C           3.7578    0.6429    0.0000 C.ar    1  UNL1        0.0161
     22 C           3.0320    2.2902    0.0000 C.ar    1  UNL1        0.3032
     23 C           8.5515   -3.5542    0.0000 C.ar    1  UNL1        0.0146
     24 C           9.0890   -2.7109    0.0000 C.ar    1  UNL1        0.0899
     25 C           2.9151    1.2552    0.0000 C.ar    1  UNL1        0.2453
     26 C           5.8336    4.5442    0.0000 C.ar    1  UNL1       -0.0520
     27 C           3.7643    4.5442    0.0000 C.ar    1  UNL1       -0.0371
     28 C           6.7236   -3.8916    0.0000 C.ar    1  UNL1        0.1478
     29 C           5.3198    5.4503    0.0000 C.ar    1  UNL1       -0.0611
     30 C           4.2782    5.4503    0.0000 C.ar    1  UNL1       -0.0598
     31 C          10.1302   -2.7406    0.0000 C.ar    1  UNL1        0.1439
     32 C           9.0179   -4.4855    0.0000 C.ar    1  UNL1       -0.0517
     33 C           5.7880   -3.4337    0.0000 C.ar    1  UNL1        0.0702
     34 C          10.6181   -3.6609    0.0000 C.ar    1  UNL1       -0.0179
     35 C          10.0582   -4.5392    0.0000 C.ar    1  UNL1       -0.0576
     36 C           5.9684   -5.4503    0.0000 C.3     1  UNL1        0.0789
     37 C          11.6574   -1.9235    0.0000 C.3     1  UNL1        0.0789
     38 H           5.0438   -0.2931    0.0000 H       1  UNL1        0.0495
     39 H           5.4759   -0.9629    0.0000 H       1  UNL1        0.0495
     40 H           7.1637   -0.9047    0.0000 H       1  UNL1        0.0346
     41 H           6.7317   -0.2349    0.0000 H       1  UNL1        0.0346
     42 H           7.0059    2.4700    0.0000 H       1  UNL1        0.0639
     43 H           7.0072    0.8598    0.0000 H       1  UNL1        0.0809
     44 H           3.6954    0.0261    0.0000 H       1  UNL1        0.0679
     45 H           8.6085   -1.3389    0.0000 H       1  UNL1        0.1661
     46 H           6.4536    4.5370    0.0000 H       1  UNL1        0.0624
     47 H           3.1444    4.5370    0.0000 H       1  UNL1        0.0638
     48 H           5.6319    5.9860    0.0000 H       1  UNL1        0.0618
     49 H           3.9661    5.9860    0.0000 H       1  UNL1        0.0618
     50 H           8.6786   -5.0044    0.0000 H       1  UNL1        0.0624
     51 H           5.2722   -3.7778    0.0000 H       1  UNL1        0.0867
     52 H          11.2376   -3.6857    0.0000 H       1  UNL1        0.0655
     53 H          10.3422   -5.0904    0.0000 H       1  UNL1        0.0619
     54 H           5.6203   -4.9372    0.0000 H       1  UNL1        0.0660
     55 H           5.4553   -5.7983    0.0000 H       1  UNL1        0.0660
     56 H           6.3164   -5.9634    0.0000 H       1  UNL1        0.0660
     57 H          11.6374   -2.5431    0.0000 H       1  UNL1        0.0660
     58 H          12.2771   -1.9435    0.0000 H       1  UNL1        0.0660
     59 H          11.6775   -1.3038    0.0000 H       1  UNL1        0.0660
@<TRIPOS>BOND
     1     1    22    2
     2     2    28    1
     3     2    36    1
     4     3    25    2
     5     4    31    1
     6     4    37    1
     7     5    10   ar
     8     5    12    1
     9     5    19   ar
    10     6     9   ar
    11     6    14   ar
    12     6    22   ar
    13     7    18   ar
    14     7    24   ar
    15     7    45    1
    16     8    17   ar
    17     8    33   ar
    18     9    10    1
    19     9    11   ar
    20    10    21   ar
    21    11    13   ar
    22    11    16   ar
    23    12    15    1
    24    12    38    1
    25    12    39    1
    26    13    14   ar
    27    13    26   ar
    28    14    27   ar
    29    15    17    1
    30    15    40    1
    31    15    41    1
    32    16    19   ar
    33    16    42    1
    34    17    18   ar
    35    18    20   ar
    36    19    43    1
    37    20    23   ar
    38    20    28   ar
    39    21    25   ar
    40    21    44    1
    41    22    25   ar
    42    23    24   ar
    43    23    32   ar
    44    24    31   ar
    45    26    29   ar
    46    26    46    1
    47    27    30   ar
    48    27    47    1
    49    28    33   ar
    50    29    30   ar
    51    29    48    1
    52    30    49    1
    53    31    34   ar
    54    32    35   ar
    55    32    50    1
    56    33    51    1
    57    34    35   ar
    58    34    52    1
    59    35    53    1
    60    36    54    1
    61    36    55    1
    62    36    56    1
    63    37    57    1
    64    37    58    1
    65    37    59    1
