@<TRIPOS>MOLECULE
IMPHY011068
 30 30 0 0 0
SMALL
GASTEIGER

@<TRIPOS>ATOM
      1 O           3.7320   -0.2500    0.0000 O.3     1  UNL1       -0.4612
      2 O           2.0000   -0.2500    0.0000 O.2     1  UNL1       -0.2450
      3 C           4.5981    2.2500    0.0000 C.3     1  UNL1       -0.0502
      4 C           4.5981    1.2500    0.0000 C.3     1  UNL1       -0.0185
      5 C           5.4641    2.7500    0.0000 C.3     1  UNL1       -0.0558
      6 C           3.7320    0.7500    0.0000 C.3     1  UNL1        0.0928
      7 C           5.4641    3.7500    0.0000 C.3     1  UNL1       -0.0653
      8 C           2.8660   -0.7500    0.0000 C.2     1  UNL1        0.3392
      9 C           2.8660   -1.7500    0.0000 C.ar    1  UNL1        0.0590
     10 C           2.0000   -2.2500    0.0000 C.ar    1  UNL1       -0.0478
     11 C           3.7320   -2.2500    0.0000 C.ar    1  UNL1       -0.0478
     12 C           2.0000   -3.2500    0.0000 C.ar    1  UNL1       -0.0610
     13 C           3.7320   -3.2500    0.0000 C.ar    1  UNL1       -0.0610
     14 C           2.8660   -3.7500    0.0000 C.ar    1  UNL1       -0.0617
     15 H           4.3860    2.8326    0.0000 H       1  UNL1        0.0266
     16 H           3.9875    2.1423    0.0000 H       1  UNL1        0.0266
     17 H           4.8101    0.6674    0.0000 H       1  UNL1        0.0298
     18 H           5.2087    1.3577    0.0000 H       1  UNL1        0.0298
     19 H           5.6762    2.1674    0.0000 H       1  UNL1        0.0263
     20 H           6.0747    2.8577    0.0000 H       1  UNL1        0.0263
     21 H           3.5200    1.3326    0.0000 H       1  UNL1        0.0697
     22 H           3.1215    0.6423    0.0000 H       1  UNL1        0.0697
     23 H           6.0841    3.7500    0.0000 H       1  UNL1        0.0230
     24 H           5.4641    4.3700    0.0000 H       1  UNL1        0.0230
     25 H           4.8441    3.7500    0.0000 H       1  UNL1        0.0230
     26 H           1.4631   -1.9400    0.0000 H       1  UNL1        0.0626
     27 H           4.2690   -1.9400    0.0000 H       1  UNL1        0.0626
     28 H           1.4631   -3.5600    0.0000 H       1  UNL1        0.0618
     29 H           4.2690   -3.5600    0.0000 H       1  UNL1        0.0618
     30 H           2.8660   -4.3700    0.0000 H       1  UNL1        0.0618
@<TRIPOS>BOND
     1     1     6    1
     2     1     8    1
     3     2     8    2
     4     3     4    1
     5     3     5    1
     6     3    15    1
     7     3    16    1
     8     4     6    1
     9     4    17    1
    10     4    18    1
    11     5     7    1
    12     5    19    1
    13     5    20    1
    14     6    21    1
    15     6    22    1
    16     7    23    1
    17     7    24    1
    18     7    25    1
    19     8     9    1
    20     9    10   ar
    21     9    11   ar
    22    10    12   ar
    23    10    26    1
    24    11    13   ar
    25    11    27    1
    26    12    14   ar
    27    12    28    1
    28    13    14   ar
    29    13    29    1
    30    14    30    1
