@<TRIPOS>MOLECULE
IMPHY001519
 21 21 0 0 0
SMALL
GASTEIGER

@<TRIPOS>ATOM
      1 O           6.8671    1.1900    0.0000 O.3     1  UNL1       -0.3905
      2 O           2.5369   -0.3100    0.0000 O.3     1  UNL1       -0.4795
      3 OXT         3.4030   -1.8100    0.0000 O.2     1  UNL1       -0.2492
      4 N           5.1350   -0.8100    0.0000 N.3     1  UNL1       -0.3017
      5 C           4.2690    0.6900    0.0000 C.3     1  UNL1       -0.0248
      6 C           5.1350    1.1900    0.0000 C.3     1  UNL1       -0.0237
      7 CA          4.2690   -0.3100    0.0000 C.3     1  UNL1        0.1059
      8 C           6.0010    0.6900    0.0000 C.3     1  UNL1        0.0678
      9 C           6.0010   -0.3100    0.0000 C.3     1  UNL1        0.0227
     10 C           3.4030   -0.8100    0.0000 C.2     1  UNL1        0.3219
     11 H           4.0569    1.2726    0.0000 H       1  UNL1        0.0286
     12 H           3.6584    0.5823    0.0000 H       1  UNL1        0.0286
     13 H           5.5335    1.6650    0.0000 H       1  UNL1        0.0291
     14 H           4.7365    1.6650    0.0000 H       1  UNL1        0.0291
     15 HA          4.2690   -0.9300    0.0000 H       1  UNL1        0.0576
     16 H           6.5380    0.3800    0.0000 H       1  UNL1        0.0606
     17 H           6.2131   -0.8926    0.0000 H       1  UNL1        0.0449
     18 H           6.6116   -0.2023    0.0000 H       1  UNL1        0.0449
     19 H           5.1350   -1.4300    0.0000 H       1  UNL1        0.1228
     20 H           6.8671    1.8100    0.0000 H       1  UNL1        0.2098
     21 H           2.0000   -0.6200    0.0000 H       1  UNL1        0.2951
@<TRIPOS>BOND
     1     1     8    1
     2     1    20    1
     3     2    10    1
     4     2    21    1
     5     3    10    2
     6     4     7    1
     7     4     9    1
     8     4    19    1
     9     5     6    1
    10     5     7    1
    11     5    11    1
    12     5    12    1
    13     6     8    1
    14     6    13    1
    15     6    14    1
    16     7    10    1
    17     7    15    1
    18     8     9    1
    19     8    16    1
    20     9    17    1
    21     9    18    1
