@<TRIPOS>MOLECULE
IMPHY012717
 29 29 0 0 0
SMALL
GASTEIGER

@<TRIPOS>ATOM
      1 O           6.3301   -2.1550    0.0000 O.3     1  UNL1       -0.4913
      2 O           2.8660   -2.1550    0.0000 O.3     1  UNL1       -0.4913
      3 O           4.5981   -3.1550    0.0000 O.3     1  UNL1       -0.5009
      4 O           6.3301    2.8450    0.0000 O.3     1  UNL1       -0.3910
      5 C           4.5981   -0.1550    0.0000 C.ar    1  UNL1       -0.0181
      6 C           5.4641   -1.6550    0.0000 C.ar    1  UNL1        0.1655
      7 C           3.7320   -1.6550    0.0000 C.ar    1  UNL1        0.1655
      8 C           3.7320   -0.6550    0.0000 C.ar    1  UNL1       -0.0089
      9 C           5.4641   -0.6550    0.0000 C.ar    1  UNL1       -0.0089
     10 C           4.5981   -2.1550    0.0000 C.ar    1  UNL1        0.2010
     11 C           4.5981    0.8450    0.0000 C.2     1  UNL1       -0.0562
     12 C           5.4641    1.3450    0.0000 C.2     1  UNL1       -0.0584
     13 C           5.4641    2.3450    0.0000 C.3     1  UNL1        0.0627
     14 C           7.1962   -1.6550    0.0000 C.3     1  UNL1        0.0790
     15 C           2.0000   -1.6550    0.0000 C.3     1  UNL1        0.0790
     16 H           3.1951   -0.3450    0.0000 H       1  UNL1        0.0661
     17 H           6.0010   -0.3450    0.0000 H       1  UNL1        0.0661
     18 H           4.0611    1.1550    0.0000 H       1  UNL1        0.0621
     19 H           6.0010    1.0350    0.0000 H       1  UNL1        0.0595
     20 H           5.2520    2.9276    0.0000 H       1  UNL1        0.0601
     21 H           4.8535    2.2373    0.0000 H       1  UNL1        0.0601
     22 H           4.0611   -3.4650    0.0000 H       1  UNL1        0.2924
     23 H           7.5062   -2.1919    0.0000 H       1  UNL1        0.0660
     24 H           7.7331   -1.3450    0.0000 H       1  UNL1        0.0660
     25 H           6.8862   -1.1181    0.0000 H       1  UNL1        0.0660
     26 H           2.3100   -1.1181    0.0000 H       1  UNL1        0.0660
     27 H           1.4631   -1.3450    0.0000 H       1  UNL1        0.0660
     28 H           1.6900   -2.1919    0.0000 H       1  UNL1        0.0660
     29 H           6.3301    3.4650    0.0000 H       1  UNL1        0.2098
@<TRIPOS>BOND
     1     1     6    1
     2     1    14    1
     3     2     7    1
     4     2    15    1
     5     3    10    1
     6     3    22    1
     7     4    13    1
     8     4    29    1
     9     5     8   ar
    10     5     9   ar
    11     5    11    1
    12     6     9   ar
    13     6    10   ar
    14     7     8   ar
    15     7    10   ar
    16     8    16    1
    17     9    17    1
    18    11    12    2
    19    11    18    1
    20    12    13    1
    21    12    19    1
    22    13    20    1
    23    13    21    1
    24    14    23    1
    25    14    24    1
    26    14    25    1
    27    15    26    1
    28    15    27    1
    29    15    28    1
