@<TRIPOS>MOLECULE
IMPHY012027
 19 19 0 0 0
SMALL
GASTEIGER

@<TRIPOS>ATOM
      1 O           4.7208   -0.7694    0.0000 O.3     1  UNL1       -0.4622
      2 O           2.4608    0.4907    0.0000 O.3     1  UNL1       -0.3799
      3 O           3.1330   -1.5784    0.0000 O.2     1  UNL1       -0.2479
      4 C           4.2208    0.7694    0.0000 C.3     1  UNL1        0.0356
      5 C           3.4118    0.1816    0.0000 C.3     1  UNL1        0.1597
      6 C           5.0298    0.1816    0.0000 C.3     1  UNL1        0.1005
      7 C           4.8086    1.5784    0.0000 C.3     1  UNL1       -0.0538
      8 C           3.6330    1.5784    0.0000 C.3     1  UNL1       -0.0538
      9 C           3.7208   -0.7694    0.0000 C.2     1  UNL1        0.3367
     10 H           2.9734   -0.2568    0.0000 H       1  UNL1        0.0717
     11 H           5.5962   -0.0705    0.0000 H       1  UNL1        0.0704
     12 H           5.3398    0.7186    0.0000 H       1  UNL1        0.0704
     13 H           5.3102    1.2140    0.0000 H       1  UNL1        0.0237
     14 H           5.1730    2.0800    0.0000 H       1  UNL1        0.0237
     15 H           4.3070    1.9429    0.0000 H       1  UNL1        0.0237
     16 H           4.1346    1.9429    0.0000 H       1  UNL1        0.0237
     17 H           3.2686    2.0800    0.0000 H       1  UNL1        0.0237
     18 H           3.1314    1.2140    0.0000 H       1  UNL1        0.0237
     19 H           2.0000    0.0758    0.0000 H       1  UNL1        0.2105
@<TRIPOS>BOND
     1     1     6    1
     2     1     9    1
     3     2     5    1
     4     2    19    1
     5     3     9    2
     6     4     5    1
     7     4     6    1
     8     4     7    1
     9     4     8    1
    10     5     9    1
    11     5    10    1
    12     6    11    1
    13     6    12    1
    14     7    13    1
    15     7    14    1
    16     7    15    1
    17     8    16    1
    18     8    17    1
    19     8    18    1
