@<TRIPOS>MOLECULE
IMPHY008293
 34 34 0 0 0
SMALL
GASTEIGER

@<TRIPOS>ATOM
      1 O           3.4030    1.6550    0.0000 O.2     1  UNL1       -0.2918
      2 O           6.0010    0.1550    0.0000 O.3     1  UNL1       -0.5056
      3 O           2.5369    0.1550    0.0000 O.3     1  UNL1       -0.5051
      4 O           4.2690   -2.8450    0.0000 O.3     1  UNL1       -0.5056
      5 O           2.5369   -2.8450    0.0000 O.2     1  UNL1       -0.2955
      6 C           5.1350    2.6550    0.0000 C.3     1  UNL1       -0.0397
      7 C           5.1350    1.6550    0.0000 C.3     1  UNL1        0.0130
      8 C           4.2690    1.1550    0.0000 C.2     1  UNL1        0.1705
      9 C           4.2690    0.1550    0.0000 C.ar    1  UNL1        0.1012
     10 C           6.0010    3.1550    0.0000 C.3     1  UNL1       -0.0623
     11 C           4.2690    3.1550    0.0000 C.3     1  UNL1       -0.0623
     12 C           5.1350   -0.3450    0.0000 C.ar    1  UNL1        0.1372
     13 C           3.4030   -0.3450    0.0000 C.ar    1  UNL1        0.1446
     14 C           5.1350   -1.3450    0.0000 C.ar    1  UNL1        0.0339
     15 C           3.4030   -1.3450    0.0000 C.ar    1  UNL1        0.0980
     16 C           4.2690   -1.8450    0.0000 C.ar    1  UNL1        0.1370
     17 C           6.0010   -1.8450    0.0000 C.3     1  UNL1       -0.0327
     18 C           2.5369   -1.8450    0.0000 C.2     1  UNL1        0.1573
     19 H           5.1350    3.2750    0.0000 H       1  UNL1        0.0300
     20 H           5.3471    1.0724    0.0000 H       1  UNL1        0.0348
     21 H           5.7456    1.7627    0.0000 H       1  UNL1        0.0348
     22 H           6.3110    2.6181    0.0000 H       1  UNL1        0.0232
     23 H           6.5380    3.4650    0.0000 H       1  UNL1        0.0232
     24 H           5.6910    3.6919    0.0000 H       1  UNL1        0.0232
     25 H           4.5790    3.6919    0.0000 H       1  UNL1        0.0232
     26 H           3.7320    3.4650    0.0000 H       1  UNL1        0.0232
     27 H           3.9590    2.6181    0.0000 H       1  UNL1        0.0232
     28 H           5.6910   -2.3819    0.0000 H       1  UNL1        0.0280
     29 H           6.5380   -2.1550    0.0000 H       1  UNL1        0.0280
     30 H           6.3110   -1.3081    0.0000 H       1  UNL1        0.0280
     31 H           2.0000   -1.5350    0.0000 H       1  UNL1        0.1084
     32 H           6.5380   -0.1550    0.0000 H       1  UNL1        0.2922
     33 H           2.0000   -0.1550    0.0000 H       1  UNL1        0.2922
     34 H           4.8059   -3.1550    0.0000 H       1  UNL1        0.2922
@<TRIPOS>BOND
     1     1     8    2
     2     2    12    1
     3     2    32    1
     4     3    13    1
     5     3    33    1
     6     4    16    1
     7     4    34    1
     8     5    18    2
     9     6     7    1
    10     6    10    1
    11     6    11    1
    12     6    19    1
    13     7     8    1
    14     7    20    1
    15     7    21    1
    16     8     9    1
    17     9    12   ar
    18     9    13   ar
    19    10    22    1
    20    10    23    1
    21    10    24    1
    22    11    25    1
    23    11    26    1
    24    11    27    1
    25    12    14   ar
    26    13    15   ar
    27    14    16   ar
    28    14    17    1
    29    15    16   ar
    30    15    18    1
    31    17    28    1
    32    17    29    1
    33    17    30    1
    34    18    31    1
