@<TRIPOS>MOLECULE
IMPHY009749
 52 51 0 0 0
SMALL
GASTEIGER

@<TRIPOS>ATOM
      1 O          16.7224    0.5600    0.0000 O.2     1  UNL1       -0.3010
      2 C           8.9282    0.0600    0.0000 C.3     1  UNL1       -0.0531
      3 C           8.0622    0.5600    0.0000 C.3     1  UNL1       -0.0531
      4 C           9.7942    0.5600    0.0000 C.3     1  UNL1       -0.0531
      5 C           7.1962    0.0600    0.0000 C.3     1  UNL1       -0.0531
      6 C          10.6603    0.0600    0.0000 C.3     1  UNL1       -0.0531
      7 C           6.3301    0.5600    0.0000 C.3     1  UNL1       -0.0531
      8 C          11.5263    0.5600    0.0000 C.3     1  UNL1       -0.0531
      9 C           5.4641    0.0600    0.0000 C.3     1  UNL1       -0.0531
     10 C          12.3923    0.0600    0.0000 C.3     1  UNL1       -0.0530
     11 C           4.5981    0.5600    0.0000 C.3     1  UNL1       -0.0531
     12 C          13.2583    0.5600    0.0000 C.3     1  UNL1       -0.0527
     13 C           3.7320    0.0600    0.0000 C.3     1  UNL1       -0.0533
     14 C          14.1244    0.0600    0.0000 C.3     1  UNL1       -0.0466
     15 C           2.8660    0.5600    0.0000 C.3     1  UNL1       -0.0559
     16 C          14.9904    0.5600    0.0000 C.3     1  UNL1        0.0028
     17 C           2.0000    0.0600    0.0000 C.3     1  UNL1       -0.0653
     18 C          15.8564    0.0600    0.0000 C.2     1  UNL1        0.1203
     19 H           8.5297   -0.4149    0.0000 H       1  UNL1        0.0265
     20 H           9.3267   -0.4149    0.0000 H       1  UNL1        0.0265
     21 H           8.4607    1.0350    0.0000 H       1  UNL1        0.0265
     22 H           7.6636    1.0350    0.0000 H       1  UNL1        0.0265
     23 H          10.1928    1.0350    0.0000 H       1  UNL1        0.0265
     24 H           9.3957    1.0350    0.0000 H       1  UNL1        0.0265
     25 H           6.7976   -0.4149    0.0000 H       1  UNL1        0.0265
     26 H           7.5947   -0.4149    0.0000 H       1  UNL1        0.0265
     27 H          10.2617   -0.4149    0.0000 H       1  UNL1        0.0265
     28 H          11.0588   -0.4149    0.0000 H       1  UNL1        0.0265
     29 H           6.7287    1.0350    0.0000 H       1  UNL1        0.0265
     30 H           5.9316    1.0350    0.0000 H       1  UNL1        0.0265
     31 H          11.9248    1.0350    0.0000 H       1  UNL1        0.0265
     32 H          11.1278    1.0350    0.0000 H       1  UNL1        0.0265
     33 H           5.0656   -0.4149    0.0000 H       1  UNL1        0.0265
     34 H           5.8626   -0.4149    0.0000 H       1  UNL1        0.0265
     35 H          11.9938   -0.4149    0.0000 H       1  UNL1        0.0265
     36 H          12.7908   -0.4149    0.0000 H       1  UNL1        0.0265
     37 H           4.9966    1.0350    0.0000 H       1  UNL1        0.0265
     38 H           4.1996    1.0350    0.0000 H       1  UNL1        0.0265
     39 H          13.6569    1.0350    0.0000 H       1  UNL1        0.0265
     40 H          12.8598    1.0350    0.0000 H       1  UNL1        0.0265
     41 H           3.3335   -0.4149    0.0000 H       1  UNL1        0.0265
     42 H           4.1306   -0.4149    0.0000 H       1  UNL1        0.0265
     43 H          13.7258   -0.4149    0.0000 H       1  UNL1        0.0269
     44 H          14.5229   -0.4149    0.0000 H       1  UNL1        0.0269
     45 H           3.2646    1.0350    0.0000 H       1  UNL1        0.0263
     46 H           2.4675    1.0350    0.0000 H       1  UNL1        0.0263
     47 H          15.3889    1.0350    0.0000 H       1  UNL1        0.0339
     48 H          14.5919    1.0350    0.0000 H       1  UNL1        0.0339
     49 H           1.6900    0.5969    0.0000 H       1  UNL1        0.0230
     50 H           1.4631   -0.2500    0.0000 H       1  UNL1        0.0230
     51 H           2.3100   -0.4769    0.0000 H       1  UNL1        0.0230
     52 H          15.8564   -0.5600    0.0000 H       1  UNL1        0.1026
@<TRIPOS>BOND
     1     1    18    2
     2     2     3    1
     3     2     4    1
     4     2    19    1
     5     2    20    1
     6     3     5    1
     7     3    21    1
     8     3    22    1
     9     4     6    1
    10     4    23    1
    11     4    24    1
    12     5     7    1
    13     5    25    1
    14     5    26    1
    15     6     8    1
    16     6    27    1
    17     6    28    1
    18     7     9    1
    19     7    29    1
    20     7    30    1
    21     8    10    1
    22     8    31    1
    23     8    32    1
    24     9    11    1
    25     9    33    1
    26     9    34    1
    27    10    12    1
    28    10    35    1
    29    10    36    1
    30    11    13    1
    31    11    37    1
    32    11    38    1
    33    12    14    1
    34    12    39    1
    35    12    40    1
    36    13    15    1
    37    13    41    1
    38    13    42    1
    39    14    16    1
    40    14    43    1
    41    14    44    1
    42    15    17    1
    43    15    45    1
    44    15    46    1
    45    16    18    1
    46    16    47    1
    47    16    48    1
    48    17    49    1
    49    17    50    1
    50    17    51    1
    51    18    52    1
