@<TRIPOS>MOLECULE
IMPHY013961
 38 41 0 0 0
SMALL
GASTEIGER

@<TRIPOS>ATOM
      1 O           8.4964   -1.0712    0.0000 O.2     1  UNL1       -0.2677
      2 N           3.0238   -0.0960    0.0000 N.3     1  UNL1       -0.2984
      3 N           7.1227    0.0452    0.0000 N.ar    1  UNL1       -0.3117
      4 C           5.0739    0.2105    0.0000 C.3     1  UNL1       -0.0067
      5 C           3.8528   -0.6551    0.0000 C.3     1  UNL1        0.0149
      6 C           5.3327    1.1764    0.0000 C.3     1  UNL1        0.0127
      7 C           4.5961    2.1591    0.0000 C.3     1  UNL1       -0.0378
      8 C           3.2994    0.8653    0.0000 C.3     1  UNL1        0.0074
      9 C           3.7962   -1.6952    0.0000 C.3     1  UNL1       -0.0370
     10 C           6.3456   -0.5841    0.0000 C.3     1  UNL1        0.0306
     11 C           2.0807   -0.5381    0.0000 C.3     1  UNL1       -0.0008
     12 C           6.7643    0.9788    0.0000 C.ar    1  UNL1        0.0263
     13 C           2.8636   -2.1591    0.0000 C.3     1  UNL1       -0.0505
     14 C           2.0000   -1.5766    0.0000 C.3     1  UNL1       -0.0401
     15 C           7.4073    1.7983    0.0000 C.ar    1  UNL1       -0.0418
     16 C           8.1489   -0.1336    0.0000 C.ar    1  UNL1        0.2515
     17 C           8.4373    1.6433    0.0000 C.ar    1  UNL1       -0.0550
     18 C           8.8106    0.6708    0.0000 C.ar    1  UNL1        0.0030
     19 H           4.8539   -0.6105    0.0000 H       1  UNL1        0.0333
     20 H           4.5575   -1.1305    0.0000 H       1  UNL1        0.0466
     21 H           5.5527    1.9975    0.0000 H       1  UNL1        0.0376
     22 H           4.9139    2.6914    0.0000 H       1  UNL1        0.0276
     23 H           3.9829    2.2510    0.0000 H       1  UNL1        0.0276
     24 H           3.2944    1.4853    0.0000 H       1  UNL1        0.0433
     25 H           2.6851    0.9491    0.0000 H       1  UNL1        0.0433
     26 H           3.9732   -2.2894    0.0000 H       1  UNL1        0.0280
     27 H           4.4119   -1.6225    0.0000 H       1  UNL1        0.0280
     28 H           5.9610   -1.0705    0.0000 H       1  UNL1        0.0496
     29 H           6.7865   -1.0200    0.0000 H       1  UNL1        0.0496
     30 H           1.9174    0.0600    0.0000 H       1  UNL1        0.0427
     31 H           1.4634   -0.5966    0.0000 H       1  UNL1        0.0427
     32 H           2.4340   -2.6062    0.0000 H       1  UNL1        0.0266
     33 H           3.2306   -2.6588    0.0000 H       1  UNL1        0.0266
     34 H           1.3992   -1.4235    0.0000 H       1  UNL1        0.0278
     35 H           1.7464   -2.1423    0.0000 H       1  UNL1        0.0278
     36 H           7.1784    2.3745    0.0000 H       1  UNL1        0.0635
     37 H           8.8256    2.1266    0.0000 H       1  UNL1        0.0620
     38 H           9.4226    0.5715    0.0000 H       1  UNL1        0.0672
@<TRIPOS>BOND
     1     1    16    2
     2     2     5    1
     3     2     8    1
     4     2    11    1
     5     3    10    1
     6     3    12   ar
     7     3    16   ar
     8     4     5    1
     9     4     7    1
    10     4    10    1
    11     4    19    1
    12     5     9    1
    13     5    20    1
    14     6     7    1
    15     6     8    1
    16     6    12    1
    17     6    21    1
    18     7    22    1
    19     7    23    1
    20     8    24    1
    21     8    25    1
    22     9    13    1
    23     9    26    1
    24     9    27    1
    25    10    28    1
    26    10    29    1
    27    11    14    1
    28    11    30    1
    29    11    31    1
    30    12    15   ar
    31    13    14    1
    32    13    32    1
    33    13    33    1
    34    14    34    1
    35    14    35    1
    36    15    17   ar
    37    15    36    1
    38    16    18   ar
    39    17    18   ar
    40    17    37    1
    41    18    38    1
