@<TRIPOS>MOLECULE
IMPHY000202
 79 83 0 0 0
SMALL
GASTEIGER

@<TRIPOS>ATOM
      1 O           4.8589   -2.7094    0.0000 O.3     1  UNL1       -0.3883
      2 O          11.1246    2.9834    0.0000 O.2     1  UNL1       -0.2971
      3 C           6.6507   -0.6610    0.0000 C.3     1  UNL1       -0.0229
      4 C           5.7847   -0.1610    0.0000 C.3     1  UNL1       -0.0209
      5 C           7.5167   -0.1610    0.0000 C.3     1  UNL1       -0.0294
      6 C           7.5167    0.8390    0.0000 C.3     1  UNL1       -0.0254
      7 C           4.8746   -0.6679    0.0000 C.3     1  UNL1       -0.0057
      8 C           8.4106    1.3736    0.0000 C.3     1  UNL1       -0.0289
      9 C           5.7847    0.8390    0.0000 C.3     1  UNL1       -0.0463
     10 C           6.6507    1.3390    0.0000 C.3     1  UNL1       -0.0466
     11 C           9.3167    0.8598    0.0000 C.3     1  UNL1       -0.0195
     12 C           4.8666   -1.7094    0.0000 C.3     1  UNL1        0.0695
     13 C           6.6667   -1.7025    0.0000 C.3     1  UNL1       -0.0442
     14 C           8.4106   -0.6957    0.0000 C.3     1  UNL1       -0.0487
     15 C           5.7687   -2.2303    0.0000 C.3     1  UNL1       -0.0232
     16 C           9.3167   -0.1818    0.0000 C.3     1  UNL1       -0.0464
     17 C           3.9478   -0.1038    0.0000 C.3     1  UNL1       -0.0419
     18 C           7.5167   -1.1610    0.0000 C.3     1  UNL1       -0.0588
     19 C           4.9186    0.3390    0.0000 C.3     1  UNL1       -0.0587
     20 C           7.5167    1.8390    0.0000 C.3     1  UNL1       -0.0590
     21 C           8.3856    2.4584    0.0000 C.3     1  UNL1       -0.0425
     22 C           3.9312   -2.2592    0.0000 C.3     1  UNL1       -0.0232
     23 C          10.2605    1.3950    0.0000 C.3     1  UNL1        0.0203
     24 C           2.9999   -0.6317    0.0000 C.3     1  UNL1       -0.0344
     25 C           2.9916   -1.7167    0.0000 C.3     1  UNL1       -0.0453
     26 C          10.1866    0.3665    0.0000 C.3     1  UNL1       -0.0587
     27 C           9.3167    3.0153    0.0000 C.3     1  UNL1        0.0064
     28 C          10.2605    2.4800    0.0000 C.2     1  UNL1        0.1367
     29 C          11.1246    0.8917    0.0000 C.3     1  UNL1       -0.0552
     30 C           2.0000   -0.6202    0.0000 C.3     1  UNL1       -0.0598
     31 C           2.5100    0.2400    0.0000 C.3     1  UNL1       -0.0598
     32 H           8.2561    0.2583    0.0000 H       1  UNL1        0.0312
     33 H           5.6058   -1.1013    0.0000 H       1  UNL1        0.0334
     34 H           9.1401    1.8100    0.0000 H       1  UNL1        0.0312
     35 H           5.5726    1.4216    0.0000 H       1  UNL1        0.0271
     36 H           5.1741    0.7313    0.0000 H       1  UNL1        0.0271
     37 H           7.0492    1.8139    0.0000 H       1  UNL1        0.0271
     38 H           6.2522    1.8139    0.0000 H       1  UNL1        0.0271
     39 H           6.8848   -2.2829    0.0000 H       1  UNL1        0.0272
     40 H           7.2759   -1.5870    0.0000 H       1  UNL1        0.0272
     41 H           8.0060   -1.1655    0.0000 H       1  UNL1        0.0268
     42 H           8.8043   -1.1747    0.0000 H       1  UNL1        0.0268
     43 H           5.3714   -2.7062    0.0000 H       1  UNL1        0.0293
     44 H           6.1697   -2.7032    0.0000 H       1  UNL1        0.0293
     45 H           9.5258   -0.7655    0.0000 H       1  UNL1        0.0271
     46 H           9.9276   -0.0757    0.0000 H       1  UNL1        0.0271
     47 H           4.3560    0.3629    0.0000 H       1  UNL1        0.0274
     48 H           3.5579    0.3783    0.0000 H       1  UNL1        0.0274
     49 H           7.2067   -1.6979    0.0000 H       1  UNL1        0.0235
     50 H           8.0536   -1.4710    0.0000 H       1  UNL1        0.0235
     51 H           7.8267   -0.6241    0.0000 H       1  UNL1        0.0235
     52 H           5.2286    0.8759    0.0000 H       1  UNL1        0.0235
     53 H           4.3817    0.6490    0.0000 H       1  UNL1        0.0235
     54 H           4.6086   -0.1979    0.0000 H       1  UNL1        0.0235
     55 H           8.1367    1.8390    0.0000 H       1  UNL1        0.0235
     56 H           7.5167    2.4590    0.0000 H       1  UNL1        0.0235
     57 H           6.8967    1.8390    0.0000 H       1  UNL1        0.0235
     58 H           8.1631    3.0371    0.0000 H       1  UNL1        0.0272
     59 H           7.7773    2.3382    0.0000 H       1  UNL1        0.0272
     60 H           3.5339   -2.7352    0.0000 H       1  UNL1        0.0293
     61 H           4.3322   -2.7321    0.0000 H       1  UNL1        0.0293
     62 H          10.7980    1.7040    0.0000 H       1  UNL1        0.0380
     63 H           2.3816   -1.6059    0.0000 H       1  UNL1        0.0271
     64 H           2.7780   -2.2987    0.0000 H       1  UNL1        0.0271
     65 H           9.8807   -0.1728    0.0000 H       1  UNL1        0.0235
     66 H          10.7259    0.0606    0.0000 H       1  UNL1        0.0235
     67 H          10.4924    0.9058    0.0000 H       1  UNL1        0.0235
     68 H           9.7103    3.4943    0.0000 H       1  UNL1        0.0342
     69 H           8.9121    3.4851    0.0000 H       1  UNL1        0.0342
     70 H           4.3196   -3.0153    0.0000 H       1  UNL1        0.2102
     71 H          10.8125    0.3560    0.0000 H       1  UNL1        0.0237
     72 H          11.6603    0.5796    0.0000 H       1  UNL1        0.0237
     73 H          11.4367    1.4275    0.0000 H       1  UNL1        0.0237
     74 H           2.0072   -0.0002    0.0000 H       1  UNL1        0.0235
     75 H           1.3800   -0.6130    0.0000 H       1  UNL1        0.0235
     76 H           1.9928   -1.2401    0.0000 H       1  UNL1        0.0235
     77 H           3.0505    0.5438    0.0000 H       1  UNL1        0.0235
     78 H           2.2062    0.7805    0.0000 H       1  UNL1        0.0235
     79 H           1.9695   -0.0637    0.0000 H       1  UNL1        0.0235
@<TRIPOS>BOND
     1    12     1    1
     2     1    70    1
     3     2    28    2
     4     3     4    1
     5     3     5    1
     6     3    13    1
     7     3    18    1
     8     4     7    1
     9     4     9    1
    10     4    19    1
    11     5     6    1
    12     5    14    1
    13     5    32    1
    14     6     8    1
    15     6    10    1
    16     6    20    1
    17     7    12    1
    18     7    17    1
    19     7    33    1
    20     8    11    1
    21     8    21    1
    22     8    34    1
    23     9    10    1
    24     9    35    1
    25     9    36    1
    26    10    37    1
    27    10    38    1
    28    11    16    1
    29    11    23    1
    30    11    26    1
    31    12    15    1
    32    12    22    1
    33    13    15    1
    34    13    39    1
    35    13    40    1
    36    14    16    1
    37    14    41    1
    38    14    42    1
    39    15    43    1
    40    15    44    1
    41    16    45    1
    42    16    46    1
    43    17    24    1
    44    17    47    1
    45    17    48    1
    46    18    49    1
    47    18    50    1
    48    18    51    1
    49    19    52    1
    50    19    53    1
    51    19    54    1
    52    20    55    1
    53    20    56    1
    54    20    57    1
    55    21    27    1
    56    21    58    1
    57    21    59    1
    58    22    25    1
    59    22    60    1
    60    22    61    1
    61    23    28    1
    62    23    29    1
    63    23    62    1
    64    24    25    1
    65    24    30    1
    66    24    31    1
    67    25    63    1
    68    25    64    1
    69    26    65    1
    70    26    66    1
    71    26    67    1
    72    27    28    1
    73    27    68    1
    74    27    69    1
    75    29    71    1
    76    29    72    1
    77    29    73    1
    78    30    74    1
    79    30    75    1
    80    30    76    1
    81    31    77    1
    82    31    78    1
    83    31    79    1
