@<TRIPOS>MOLECULE
IMPHY011833
 39 41 0 0 0
SMALL
GASTEIGER

@<TRIPOS>ATOM
      1 O           2.9340   -2.9233    0.0000 O.3     1  UNL1       -0.3907
      2 N           6.3981    0.0767    0.0000 N.3     1  UNL1       -0.3151
      3 N           3.3073    3.0206    0.0000 N.ar    1  UNL1       -0.3604
      4 C           5.5321    0.5767    0.0000 C.3     1  UNL1        0.0216
      5 C           4.6660    0.0767    0.0000 C.3     1  UNL1        0.0188
      6 C           5.5321    1.5767    0.0000 C.3     1  UNL1       -0.0094
      7 C           3.8000    0.5767    0.0000 C.ar    1  UNL1       -0.0296
      8 C           3.8000    1.5767    0.0000 C.ar    1  UNL1        0.0067
      9 C           4.6660    2.0767    0.0000 C.ar    1  UNL1       -0.0206
     10 C           2.9061    2.1114    0.0000 C.ar    1  UNL1        0.0470
     11 C           4.6660   -0.9233    0.0000 C.2     1  UNL1       -0.0740
     12 C           4.3009    3.0010    0.0000 C.ar    1  UNL1        0.0060
     13 C           2.9061    0.0420    0.0000 C.ar    1  UNL1       -0.0573
     14 C           2.0000    1.5975    0.0000 C.ar    1  UNL1       -0.0378
     15 C           2.0000    0.5559    0.0000 C.ar    1  UNL1       -0.0595
     16 C           3.8000   -1.4233    0.0000 C.2     1  UNL1       -0.0509
     17 C           7.2641    0.5767    0.0000 C.3     1  UNL1       -0.0155
     18 C           3.8000   -2.4233    0.0000 C.3     1  UNL1        0.0651
     19 C           2.9340   -0.9233    0.0000 C.3     1  UNL1       -0.0416
     20 H           5.5321   -0.0433    0.0000 H       1  UNL1        0.0472
     21 H           4.1291   -0.2333    0.0000 H       1  UNL1        0.0407
     22 H           6.1426    1.4690    0.0000 H       1  UNL1        0.0329
     23 H           5.7441    2.1593    0.0000 H       1  UNL1        0.0329
     24 H           5.2030   -1.2333    0.0000 H       1  UNL1        0.0579
     25 H           6.3981   -0.5433    0.0000 H       1  UNL1        0.1219
     26 H           4.6546    3.5102    0.0000 H       1  UNL1        0.0810
     27 H           2.9132   -0.5779    0.0000 H       1  UNL1        0.0621
     28 H           2.9739    3.5433    0.0000 H       1  UNL1        0.1653
     29 H           1.4643    1.9096    0.0000 H       1  UNL1        0.0638
     30 H           1.4643    0.2438    0.0000 H       1  UNL1        0.0618
     31 H           7.5741    0.0398    0.0000 H       1  UNL1        0.0388
     32 H           7.8010    0.8867    0.0000 H       1  UNL1        0.0388
     33 H           6.9541    1.1136    0.0000 H       1  UNL1        0.0388
     34 H           4.0121   -3.0059    0.0000 H       1  UNL1        0.0604
     35 H           4.4106   -2.3156    0.0000 H       1  UNL1        0.0604
     36 H           3.2440   -0.3864    0.0000 H       1  UNL1        0.0275
     37 H           2.3970   -0.6133    0.0000 H       1  UNL1        0.0275
     38 H           2.6240   -1.4602    0.0000 H       1  UNL1        0.0275
     39 H           2.9340   -3.5433    0.0000 H       1  UNL1        0.2098
@<TRIPOS>BOND
     1     1    18    1
     2     1    39    1
     3     4     2    1
     4     2    17    1
     5     2    25    1
     6     3    10   ar
     7     3    12   ar
     8     3    28    1
     9     4     5    1
    10     4     6    1
    11     4    20    1
    12     5     7    1
    13     5    11    1
    14     5    21    1
    15     6     9    1
    16     6    22    1
    17     6    23    1
    18     7     8   ar
    19     7    13   ar
    20     8     9   ar
    21     8    10   ar
    22     9    12   ar
    23    10    14   ar
    24    11    16    2
    25    11    24    1
    26    12    26    1
    27    13    15   ar
    28    13    27    1
    29    14    15   ar
    30    14    29    1
    31    15    30    1
    32    16    18    1
    33    16    19    1
    34    17    31    1
    35    17    32    1
    36    17    33    1
    37    18    34    1
    38    18    35    1
    39    19    36    1
    40    19    37    1
    41    19    38    1
