@<TRIPOS>MOLECULE
IMPHY002569
 41 43 0 0 0
SMALL
GASTEIGER

@<TRIPOS>ATOM
      1 O          10.7404    0.5547    0.0000 O.3     1  UNL1       -0.4526
      2 O          10.7404   -1.0547    0.0000 O.3     1  UNL1       -0.4526
      3 O           5.4641    1.7500    0.0000 O.2     1  UNL1       -0.2919
      4 O           3.7320    1.7500    0.0000 O.3     1  UNL1       -0.4943
      5 O           2.0000   -1.2500    0.0000 O.3     1  UNL1       -0.4950
      6 C           7.1962    0.7500    0.0000 C.3     1  UNL1       -0.0206
      7 C           8.0622    0.2500    0.0000 C.ar    1  UNL1       -0.0433
      8 C           6.3301    0.2500    0.0000 C.3     1  UNL1        0.0146
      9 C           8.9282    0.7500    0.0000 C.ar    1  UNL1       -0.0130
     10 C           9.7942    0.2500    0.0000 C.ar    1  UNL1        0.1665
     11 C           5.4641    0.7500    0.0000 C.2     1  UNL1        0.1670
     12 C           8.0622   -0.7500    0.0000 C.ar    1  UNL1       -0.0549
     13 C           9.7942   -0.7500    0.0000 C.ar    1  UNL1        0.1662
     14 C           4.5981    0.2500    0.0000 C.ar    1  UNL1        0.0592
     15 C           8.9282   -1.2500    0.0000 C.ar    1  UNL1       -0.0159
     16 C           3.7320    0.7500    0.0000 C.ar    1  UNL1        0.1340
     17 C          11.3241   -0.2500    0.0000 C.3     1  UNL1        0.2332
     18 C           4.5981   -0.7500    0.0000 C.ar    1  UNL1       -0.0443
     19 C           2.8660    0.2500    0.0000 C.ar    1  UNL1        0.0224
     20 C           3.7320   -1.2500    0.0000 C.ar    1  UNL1       -0.0191
     21 C           2.8660   -0.7500    0.0000 C.ar    1  UNL1        0.1236
     22 C           2.8660    2.2500    0.0000 C.3     1  UNL1        0.0788
     23 C           2.0000   -2.2500    0.0000 C.3     1  UNL1        0.0788
     24 H           7.5947    1.2250    0.0000 H       1  UNL1        0.0317
     25 H           6.7976    1.2250    0.0000 H       1  UNL1        0.0317
     26 H           5.9316   -0.2249    0.0000 H       1  UNL1        0.0348
     27 H           6.7287   -0.2249    0.0000 H       1  UNL1        0.0348
     28 H           8.9282    1.3700    0.0000 H       1  UNL1        0.0658
     29 H           7.5252   -1.0600    0.0000 H       1  UNL1        0.0621
     30 H           8.9282   -1.8700    0.0000 H       1  UNL1        0.0655
     31 H          11.7849   -0.6647    0.0000 H       1  UNL1        0.1166
     32 H          11.7849    0.1647    0.0000 H       1  UNL1        0.1166
     33 H           5.1350   -1.0600    0.0000 H       1  UNL1        0.0627
     34 H           2.3291    0.5600    0.0000 H       1  UNL1        0.0691
     35 H           3.7320   -1.8700    0.0000 H       1  UNL1        0.0654
     36 H           3.1760    2.7869    0.0000 H       1  UNL1        0.0660
     37 H           2.3291    2.5600    0.0000 H       1  UNL1        0.0660
     38 H           2.5560    1.7131    0.0000 H       1  UNL1        0.0660
     39 H           1.3800   -2.2500    0.0000 H       1  UNL1        0.0660
     40 H           2.0000   -2.8700    0.0000 H       1  UNL1        0.0660
     41 H           2.6200   -2.2500    0.0000 H       1  UNL1        0.0660
@<TRIPOS>BOND
     1     1    10    1
     2     1    17    1
     3     2    13    1
     4     2    17    1
     5     3    11    2
     6     4    16    1
     7     4    22    1
     8     5    21    1
     9     5    23    1
    10     6     7    1
    11     6     8    1
    12     6    24    1
    13     6    25    1
    14     7     9   ar
    15     7    12   ar
    16     8    11    1
    17     8    26    1
    18     8    27    1
    19     9    10   ar
    20     9    28    1
    21    10    13   ar
    22    11    14    1
    23    12    15   ar
    24    12    29    1
    25    13    15   ar
    26    14    16   ar
    27    14    18   ar
    28    15    30    1
    29    16    19   ar
    30    17    31    1
    31    17    32    1
    32    18    20   ar
    33    18    33    1
    34    19    21   ar
    35    19    34    1
    36    20    21   ar
    37    20    35    1
    38    22    36    1
    39    22    37    1
    40    22    38    1
    41    23    39    1
    42    23    40    1
    43    23    41    1
