@<TRIPOS>MOLECULE
IMPHY009515
 33 35 0 0 0
SMALL
GASTEIGER

@<TRIPOS>ATOM
      1 O           4.6342   -1.7811    0.0000 O.2     1  UNL1       -0.4218
      2 O           8.2065   -1.5511    0.0000 O.2     1  UNL1       -0.4628
      3 O           2.8641   -1.7706    0.0000 O.2     1  UNL1       -0.2449
      4 C           2.8641    0.2777    0.0000 C.3     1  UNL1        0.0146
      5 C           3.7282   -0.2256    0.0000 C.ar    1  UNL1        0.0470
      6 C           3.3674    1.1418    0.0000 C.3     1  UNL1       -0.0521
      7 C           2.3608   -0.5864    0.0000 C.3     1  UNL1       -0.0521
      8 C           4.6342    0.2883    0.0000 C.ar    1  UNL1       -0.0403
      9 C           5.5282   -0.2464    0.0000 C.ar    1  UNL1        0.0187
     10 C           2.0000    0.7811    0.0000 C.2     1  UNL1       -0.0809
     11 C           5.5282   -1.2464    0.0000 C.ar    1  UNL1        0.1426
     12 C           3.7282   -1.2672    0.0000 C.ar    1  UNL1        0.3413
     13 C           6.3942    0.2536    0.0000 C.ar    1  UNL1       -0.0403
     14 C           7.2602   -0.2464    0.0000 C.ar    1  UNL1        0.0209
     15 C           7.2602   -1.2464    0.0000 C.ar    1  UNL1        0.1383
     16 C           6.3942   -1.7464    0.0000 C.ar    1  UNL1        0.0243
     17 C           8.2065    0.0583    0.0000 C.ar    1  UNL1       -0.0161
     18 C           2.0038    1.7811    0.0000 C.2     1  UNL1       -0.1018
     19 C           8.7901   -0.7464    0.0000 C.ar    1  UNL1        0.0931
     20 H           1.8250   -0.2743    0.0000 H       1  UNL1        0.0241
     21 H           2.0487   -1.1221    0.0000 H       1  UNL1        0.0241
     22 H           2.8965   -0.8984    0.0000 H       1  UNL1        0.0241
     23 H           3.9032    0.8298    0.0000 H       1  UNL1        0.0241
     24 H           3.6795    1.6776    0.0000 H       1  UNL1        0.0241
     25 H           2.8317    1.4539    0.0000 H       1  UNL1        0.0241
     26 H           4.6414    0.9082    0.0000 H       1  UNL1        0.0630
     27 H           1.4619    0.4731    0.0000 H       1  UNL1        0.0575
     28 H           6.3942    0.8736    0.0000 H       1  UNL1        0.0632
     29 H           6.3942   -2.3664    0.0000 H       1  UNL1        0.0692
     30 H           8.3991    0.6476    0.0000 H       1  UNL1        0.0655
     31 H           2.5420    2.0890    0.0000 H       1  UNL1        0.0532
     32 H           1.4681    2.0931    0.0000 H       1  UNL1        0.0532
     33 H           9.4101   -0.7464    0.0000 H       1  UNL1        0.1029
@<TRIPOS>BOND
     1     1    11   ar
     2     1    12   ar
     3     2    15   ar
     4     2    19   ar
     5     3    12    2
     6     4     5    1
     7     4     6    1
     8     4     7    1
     9     4    10    1
    10     5     8   ar
    11     5    12   ar
    12     6    23    1
    13     6    24    1
    14     6    25    1
    15     7    20    1
    16     7    21    1
    17     7    22    1
    18     8     9   ar
    19     8    26    1
    20     9    11   ar
    21     9    13   ar
    22    10    18    2
    23    10    27    1
    24    11    16   ar
    25    13    14   ar
    26    13    28    1
    27    14    15   ar
    28    14    17   ar
    29    15    16   ar
    30    16    29    1
    31    17    19   ar
    32    17    30    1
    33    18    31    1
    34    18    32    1
    35    19    33    1
