@<TRIPOS>MOLECULE
IMPHY002747
 39 43 0 0 0
SMALL
GASTEIGER

@<TRIPOS>ATOM
      1 O           2.8718   -1.0567    0.0000 O.3     1  UNL1       -0.4945
      2 O           4.4081    3.0217    0.0000 O.3     1  UNL1       -0.4526
      3 O           2.9562    2.1835    0.0000 O.3     1  UNL1       -0.4526
      4 N           7.2334   -1.5546    0.0000 N.3     1  UNL1       -0.3087
      5 C           6.3740   -1.0598    0.0000 C.3     1  UNL1        0.0378
      6 C           5.5080   -1.5598    0.0000 C.ar    1  UNL1       -0.0158
      7 C           6.3740   -0.0598    0.0000 C.3     1  UNL1       -0.0074
      8 C           4.6419   -1.0598    0.0000 C.ar    1  UNL1        0.0291
      9 C           5.5240   -2.6013    0.0000 C.ar    1  UNL1       -0.0407
     10 C           5.5080    0.4402    0.0000 C.ar    1  UNL1       -0.0341
     11 C           4.6419   -0.0598    0.0000 C.ar    1  UNL1       -0.0071
     12 C           6.4011   -3.0641    0.0000 C.3     1  UNL1       -0.0148
     13 C           7.2469   -2.5462    0.0000 C.3     1  UNL1        0.0004
     14 C           3.7319   -1.5667    0.0000 C.ar    1  UNL1        0.1281
     15 C           4.6260   -3.1291    0.0000 C.ar    1  UNL1       -0.0547
     16 C           5.5240    1.4817    0.0000 C.ar    1  UNL1       -0.0123
     17 C           3.7319    0.4470    0.0000 C.ar    1  UNL1       -0.0080
     18 C           3.7239   -2.6082    0.0000 C.ar    1  UNL1       -0.0191
     19 C           4.6260    2.0094    0.0000 C.ar    1  UNL1        0.1665
     20 C           3.7239    1.4886    0.0000 C.ar    1  UNL1        0.1668
     21 C           3.3782    3.1291    0.0000 C.3     1  UNL1        0.2332
     22 C           2.0000   -1.5466    0.0000 C.3     1  UNL1        0.0788
     23 H           7.1098   -0.6343    0.0000 H       1  UNL1        0.0513
     24 H           6.9846   -0.1675    0.0000 H       1  UNL1        0.0332
     25 H           6.5860    0.5228    0.0000 H       1  UNL1        0.0332
     26 H           7.7681   -1.2406    0.0000 H       1  UNL1        0.1225
     27 H           6.0190   -3.5523    0.0000 H       1  UNL1        0.0326
     28 H           6.8137   -3.5269    0.0000 H       1  UNL1        0.0326
     29 H           7.4716   -3.1241    0.0000 H       1  UNL1        0.0427
     30 H           7.8555   -2.4278    0.0000 H       1  UNL1        0.0427
     31 H           4.6284   -3.7491    0.0000 H       1  UNL1        0.0622
     32 H           6.0645    1.7855    0.0000 H       1  UNL1        0.0658
     33 H           3.1986    0.1308    0.0000 H       1  UNL1        0.0661
     34 H           3.1858   -2.9162    0.0000 H       1  UNL1        0.0654
     35 H           3.5069    3.7356    0.0000 H       1  UNL1        0.1166
     36 H           2.7886    3.3208    0.0000 H       1  UNL1        0.1166
     37 H           1.6962   -1.0061    0.0000 H       1  UNL1        0.0660
     38 H           1.4595   -1.8504    0.0000 H       1  UNL1        0.0660
     39 H           2.3038   -2.0871    0.0000 H       1  UNL1        0.0660
@<TRIPOS>BOND
     1     1    14    1
     2     1    22    1
     3     2    19    1
     4     2    21    1
     5     3    20    1
     6     3    21    1
     7     4     5    1
     8     4    13    1
     9     4    26    1
    10     5     6    1
    11     5     7    1
    12     5    23    1
    13     6     8   ar
    14     6     9   ar
    15     7    10    1
    16     7    24    1
    17     7    25    1
    18     8    11    1
    19     8    14   ar
    20     9    12    1
    21     9    15   ar
    22    10    11   ar
    23    10    16   ar
    24    11    17   ar
    25    12    13    1
    26    12    27    1
    27    12    28    1
    28    13    29    1
    29    13    30    1
    30    14    18   ar
    31    15    18   ar
    32    15    31    1
    33    16    19   ar
    34    16    32    1
    35    17    20   ar
    36    17    33    1
    37    18    34    1
    38    19    20   ar
    39    21    35    1
    40    21    36    1
    41    22    37    1
    42    22    38    1
    43    22    39    1
