@<TRIPOS>MOLECULE
IMPHY006935
 22 22 0 0 0
SMALL
GASTEIGER

@<TRIPOS>ATOM
      1 O           2.5369   -0.8100    0.0000 O.3     1  UNL1       -0.5065
      2 O           6.0010    2.1900    0.0000 O.3     1  UNL1       -0.4806
      3 O           4.2690    2.1900    0.0000 O.2     1  UNL1       -0.2510
      4 C           4.2690    0.1900    0.0000 C.3     1  UNL1       -0.0142
      5 C           4.2690   -0.8100    0.0000 C.ar    1  UNL1       -0.0054
      6 C           5.1350    0.6900    0.0000 C.3     1  UNL1        0.0489
      7 C           3.4030   -1.3100    0.0000 C.ar    1  UNL1        0.1200
      8 C           5.1350   -1.3100    0.0000 C.ar    1  UNL1       -0.0551
      9 C           3.4030   -2.3100    0.0000 C.ar    1  UNL1       -0.0199
     10 C           5.1350   -2.3100    0.0000 C.ar    1  UNL1       -0.0613
     11 C           4.2690   -2.8100    0.0000 C.ar    1  UNL1       -0.0583
     12 C           5.1350    1.6900    0.0000 C.2     1  UNL1        0.3050
     13 H           4.0569    0.7726    0.0000 H       1  UNL1        0.0319
     14 H           3.6584    0.0823    0.0000 H       1  UNL1        0.0319
     15 H           5.3471    0.1074    0.0000 H       1  UNL1        0.0381
     16 H           5.7456    0.7977    0.0000 H       1  UNL1        0.0381
     17 H           5.6720   -1.0000    0.0000 H       1  UNL1        0.0621
     18 H           2.8660   -2.6200    0.0000 H       1  UNL1        0.0654
     19 H           5.6720   -2.6200    0.0000 H       1  UNL1        0.0618
     20 H           4.2690   -3.4300    0.0000 H       1  UNL1        0.0619
     21 H           2.0000   -1.1200    0.0000 H       1  UNL1        0.2921
     22 H           6.0010    2.8100    0.0000 H       1  UNL1        0.2951
@<TRIPOS>BOND
     1     1     7    1
     2     1    21    1
     3     2    12    1
     4     2    22    1
     5     3    12    2
     6     4     5    1
     7     4     6    1
     8     4    13    1
     9     4    14    1
    10     5     7   ar
    11     5     8   ar
    12     6    12    1
    13     6    15    1
    14     6    16    1
    15     7     9   ar
    16     8    10   ar
    17     8    17    1
    18     9    11   ar
    19     9    18    1
    20    10    11   ar
    21    10    19    1
    22    11    20    1
