@<TRIPOS>MOLECULE
IMPHY012704
 88 93 0 0 0
SMALL
GASTEIGER

@<TRIPOS>ATOM
      1 O           6.5248   -3.8961    0.0000 O.3     1  UNL1       -0.4578
      2 O          11.0487    3.8961    0.0000 O.3     1  UNL1       -0.4578
      3 O           7.1172   -5.5237    0.0000 O.2     1  UNL1       -0.2449
      4 O          10.4563    5.5237    0.0000 O.2     1  UNL1       -0.2449
      5 O           2.9397   -4.2793    0.0000 O.3     1  UNL1       -0.4914
      6 O          14.6339    4.2793    0.0000 O.3     1  UNL1       -0.4914
      7 O           2.5924   -6.2490    0.0000 O.3     1  UNL1       -0.4915
      8 O          14.9811    6.2490    0.0000 O.3     1  UNL1       -0.4915
      9 N           9.0368   -1.2990    0.0000 N.3     1  UNL1       -0.2950
     10 N           8.5368    1.2990    0.0000 N.3     1  UNL1       -0.2950
     11 C           9.7734   -2.2816    0.0000 C.3     1  UNL1        0.0141
     12 C           9.5146   -3.2476    0.0000 C.3     1  UNL1        0.0141
     13 C           7.8002    2.2816    0.0000 C.3     1  UNL1        0.0141
     14 C           8.0590    3.2476    0.0000 C.3     1  UNL1        0.0141
     15 C          11.1723   -2.7905    0.0000 C.3     1  UNL1       -0.0358
     16 C          10.9135   -3.7564    0.0000 C.3     1  UNL1       -0.0358
     17 C           6.4012    2.7905    0.0000 C.3     1  UNL1       -0.0358
     18 C           6.6600    3.7564    0.0000 C.3     1  UNL1       -0.0358
     19 C           8.5368   -0.4330    0.0000 C.3     1  UNL1        0.0122
     20 C           9.0368    0.4330    0.0000 C.3     1  UNL1        0.0122
     21 C           7.7401   -2.5928    0.0000 C.3     1  UNL1        0.0001
     22 C           8.2935   -4.1132    0.0000 C.3     1  UNL1        0.0001
     23 C           9.8334    2.5928    0.0000 C.3     1  UNL1        0.0001
     24 C           9.2800    4.1132    0.0000 C.3     1  UNL1        0.0001
     25 C           7.4645   -3.5540    0.0000 C.3     1  UNL1        0.1063
     26 C          10.1090    3.5540    0.0000 C.3     1  UNL1        0.1063
     27 C           6.3512   -4.8809    0.0000 C.2     1  UNL1        0.3396
     28 C          11.2224    4.8809    0.0000 C.2     1  UNL1        0.3396
     29 C           5.4115   -5.2229    0.0000 C.ar    1  UNL1        0.0627
     30 C          12.1621    5.2229    0.0000 C.ar    1  UNL1        0.0627
     31 C           4.6454   -4.5801    0.0000 C.ar    1  UNL1       -0.0023
     32 C          12.9281    4.5801    0.0000 C.ar    1  UNL1       -0.0023
     33 C           5.2378   -6.2077    0.0000 C.ar    1  UNL1       -0.0441
     34 C          12.3357    6.2077    0.0000 C.ar    1  UNL1       -0.0441
     35 C           3.7057   -4.9221    0.0000 C.ar    1  UNL1        0.1623
     36 C          13.8678    4.9221    0.0000 C.ar    1  UNL1        0.1623
     37 C           4.2981   -6.5497    0.0000 C.ar    1  UNL1       -0.0155
     38 C          13.2754    6.5497    0.0000 C.ar    1  UNL1       -0.0155
     39 C           3.5321   -5.9069    0.0000 C.ar    1  UNL1        0.1615
     40 C          14.0415    5.9069    0.0000 C.ar    1  UNL1        0.1615
     41 C           2.0000   -4.6214    0.0000 C.3     1  UNL1        0.0790
     42 C          15.5735    4.6214    0.0000 C.3     1  UNL1        0.0790
     43 C           2.4188   -7.2338    0.0000 C.3     1  UNL1        0.0790
     44 C          15.1548    7.2338    0.0000 C.3     1  UNL1        0.0790
     45 H          10.1427   -1.7837    0.0000 H       1  UNL1        0.0464
     46 H           9.5974   -3.8620    0.0000 H       1  UNL1        0.0464
     47 H           7.8611    2.8986    0.0000 H       1  UNL1        0.0464
     48 H           7.9762    3.8620    0.0000 H       1  UNL1        0.0464
     49 H          11.7663   -2.9682    0.0000 H       1  UNL1        0.0281
     50 H          11.3673   -2.2019    0.0000 H       1  UNL1        0.0281
     51 H          10.7186   -4.3450    0.0000 H       1  UNL1        0.0281
     52 H          11.5075   -3.9342    0.0000 H       1  UNL1        0.0281
     53 H           5.8072    2.9682    0.0000 H       1  UNL1        0.0281
     54 H           6.2063    2.2019    0.0000 H       1  UNL1        0.0281
     55 H           6.8550    4.3450    0.0000 H       1  UNL1        0.0281
     56 H           6.0661    3.9342    0.0000 H       1  UNL1        0.0281
     57 H           8.0618   -0.0345    0.0000 H       1  UNL1        0.0439
     58 H           8.0618   -0.8315    0.0000 H       1  UNL1        0.0439
     59 H           9.5117    0.0345    0.0000 H       1  UNL1        0.0439
     60 H           9.5117    0.8315    0.0000 H       1  UNL1        0.0439
     61 H           7.7351   -1.9728    0.0000 H       1  UNL1        0.0316
     62 H           7.1258   -2.5090    0.0000 H       1  UNL1        0.0316
     63 H           7.8877   -4.5820    0.0000 H       1  UNL1        0.0316
     64 H           8.7102   -4.5724    0.0000 H       1  UNL1        0.0316
     65 H           9.8384    1.9728    0.0000 H       1  UNL1        0.0316
     66 H          10.4477    2.5090    0.0000 H       1  UNL1        0.0316
     67 H           9.6858    4.5820    0.0000 H       1  UNL1        0.0316
     68 H           8.8634    4.5724    0.0000 H       1  UNL1        0.0316
     69 H           7.0111   -3.1312    0.0000 H       1  UNL1        0.0735
     70 H          10.1846    4.1694    0.0000 H       1  UNL1        0.0735
     71 H           4.7531   -3.9695    0.0000 H       1  UNL1        0.0663
     72 H          12.8205    3.9695    0.0000 H       1  UNL1        0.0663
     73 H           5.7128   -6.6062    0.0000 H       1  UNL1        0.0627
     74 H          11.8608    6.6062    0.0000 H       1  UNL1        0.0627
     75 H           4.1905   -7.1603    0.0000 H       1  UNL1        0.0655
     76 H          13.3831    7.1603    0.0000 H       1  UNL1        0.0655
     77 H           1.7880   -4.0388    0.0000 H       1  UNL1        0.0660
     78 H           1.4174   -4.8334    0.0000 H       1  UNL1        0.0660
     79 H           2.2120   -5.2040    0.0000 H       1  UNL1        0.0660
     80 H          15.7856    4.0388    0.0000 H       1  UNL1        0.0660
     81 H          16.1562    4.8334    0.0000 H       1  UNL1        0.0660
     82 H          15.3615    5.2040    0.0000 H       1  UNL1        0.0660
     83 H           1.8082   -7.1261    0.0000 H       1  UNL1        0.0660
     84 H           2.3111   -7.8443    0.0000 H       1  UNL1        0.0660
     85 H           3.0293   -7.3414    0.0000 H       1  UNL1        0.0660
     86 H          15.7654    7.1261    0.0000 H       1  UNL1        0.0660
     87 H          15.2625    7.8443    0.0000 H       1  UNL1        0.0660
     88 H          14.5442    7.3414    0.0000 H       1  UNL1        0.0660
@<TRIPOS>BOND
     1     1    25    1
     2     1    27    1
     3     2    26    1
     4     2    28    1
     5     3    27    2
     6     4    28    2
     7     5    35    1
     8     5    41    1
     9     6    36    1
    10     6    42    1
    11     7    39    1
    12     7    43    1
    13     8    40    1
    14     8    44    1
    15     9    11    1
    16     9    12    1
    17     9    19    1
    18    10    13    1
    19    10    14    1
    20    10    20    1
    21    11    15    1
    22    11    21    1
    23    11    45    1
    24    12    16    1
    25    12    22    1
    26    12    46    1
    27    13    17    1
    28    13    23    1
    29    13    47    1
    30    14    18    1
    31    14    24    1
    32    14    48    1
    33    15    16    1
    34    15    49    1
    35    15    50    1
    36    16    51    1
    37    16    52    1
    38    17    18    1
    39    17    53    1
    40    17    54    1
    41    18    55    1
    42    18    56    1
    43    19    20    1
    44    19    57    1
    45    19    58    1
    46    20    59    1
    47    20    60    1
    48    21    25    1
    49    21    61    1
    50    21    62    1
    51    22    25    1
    52    22    63    1
    53    22    64    1
    54    23    26    1
    55    23    65    1
    56    23    66    1
    57    24    26    1
    58    24    67    1
    59    24    68    1
    60    25    69    1
    61    26    70    1
    62    27    29    1
    63    28    30    1
    64    29    31   ar
    65    29    33   ar
    66    30    32   ar
    67    30    34   ar
    68    31    35   ar
    69    31    71    1
    70    32    36   ar
    71    32    72    1
    72    33    37   ar
    73    33    73    1
    74    34    38   ar
    75    34    74    1
    76    35    39   ar
    77    36    40   ar
    78    37    39   ar
    79    37    75    1
    80    38    40   ar
    81    38    76    1
    82    41    77    1
    83    41    78    1
    84    41    79    1
    85    42    80    1
    86    42    81    1
    87    42    82    1
    88    43    83    1
    89    43    84    1
    90    43    85    1
    91    44    86    1
    92    44    87    1
    93    44    88    1
