@<TRIPOS>MOLECULE
IMPHY006639
 40 41 0 0 0
SMALL
GASTEIGER

@<TRIPOS>ATOM
      1 O           4.8660    0.9221    0.0000 O.3     1  UNL1       -0.3554
      2 O           2.2680    0.4221    0.0000 O.2     1  UNL1       -0.2857
      3 O           2.2680    2.4220    0.0000 O.2     1  UNL1       -0.5035
      4 C           3.5000   -0.4440    0.0000 C.3     1  UNL1       -0.0010
      5 C           4.0000    0.4221    0.0000 C.3     1  UNL1        0.1359
      6 C           2.5000   -0.4440    0.0000 C.3     1  UNL1       -0.0432
      7 C           4.0000   -1.3100    0.0000 C.3     1  UNL1       -0.0286
      8 C           2.0000   -1.3100    0.0000 C.3     1  UNL1       -0.0316
      9 C           4.8660    1.9220    0.0000 C.3     1  UNL1        0.0870
     10 C           3.1340    0.9221    0.0000 C.2     1  UNL1        0.2283
     11 C           4.5000   -0.4440    0.0000 C.3     1  UNL1       -0.0281
     12 C           3.5000   -2.1760    0.0000 C.2     1  UNL1       -0.0847
     13 C           2.5000   -2.1760    0.0000 C.2     1  UNL1       -0.0765
     14 C           4.0000    2.4220    0.0000 C.2     1  UNL1       -0.0080
     15 C           3.1340    1.9220    0.0000 C.2     1  UNL1        0.1609
     16 C           5.3660    2.7881    0.0000 C.3     1  UNL1       -0.0323
     17 C           5.8660    1.9220    0.0000 C.3     1  UNL1       -0.0323
     18 C           2.0000   -3.0420    0.0000 C.3     1  UNL1       -0.0438
     19 H           3.1900    0.0930    0.0000 H       1  UNL1        0.0336
     20 H           2.6077    0.1666    0.0000 H       1  UNL1        0.0272
     21 H           1.9174   -0.2319    0.0000 H       1  UNL1        0.0272
     22 H           4.4750   -1.7085    0.0000 H       1  UNL1        0.0311
     23 H           4.4750   -0.9115    0.0000 H       1  UNL1        0.0311
     24 H           1.5250   -0.9115    0.0000 H       1  UNL1        0.0310
     25 H           1.5250   -1.7085    0.0000 H       1  UNL1        0.0310
     26 H           3.9631   -0.7540    0.0000 H       1  UNL1        0.0262
     27 H           4.8100   -0.9809    0.0000 H       1  UNL1        0.0262
     28 H           5.0369   -0.1340    0.0000 H       1  UNL1        0.0262
     29 H           3.8100   -2.7130    0.0000 H       1  UNL1        0.0572
     30 H           4.0000    3.0420    0.0000 H       1  UNL1        0.0638
     31 H           5.9030    2.4781    0.0000 H       1  UNL1        0.0260
     32 H           5.6760    3.3250    0.0000 H       1  UNL1        0.0260
     33 H           4.8291    3.0981    0.0000 H       1  UNL1        0.0260
     34 H           5.8660    1.3020    0.0000 H       1  UNL1        0.0260
     35 H           6.4860    1.9220    0.0000 H       1  UNL1        0.0260
     36 H           5.8660    2.5420    0.0000 H       1  UNL1        0.0260
     37 H           1.4631   -2.7320    0.0000 H       1  UNL1        0.0274
     38 H           1.6900   -3.5790    0.0000 H       1  UNL1        0.0274
     39 H           2.5369   -3.3520    0.0000 H       1  UNL1        0.0274
     40 H           2.2680    3.0420    0.0000 H       1  UNL1        0.2923
@<TRIPOS>BOND
     1     1     5    1
     2     1     9    1
     3     2    10    2
     4     3    15    1
     5     3    40    1
     6     4     5    1
     7     4     6    1
     8     4     7    1
     9     4    19    1
    10     5    10    1
    11     5    11    1
    12     6     8    1
    13     6    20    1
    14     6    21    1
    15     7    12    1
    16     7    22    1
    17     7    23    1
    18     8    13    1
    19     8    24    1
    20     8    25    1
    21     9    14    1
    22     9    16    1
    23     9    17    1
    24    10    15    1
    25    11    26    1
    26    11    27    1
    27    11    28    1
    28    12    13    2
    29    12    29    1
    30    13    18    1
    31    14    15    2
    32    14    30    1
    33    16    31    1
    34    16    32    1
    35    16    33    1
    36    17    34    1
    37    17    35    1
    38    17    36    1
    39    18    37    1
    40    18    38    1
    41    18    39    1
