@<TRIPOS>MOLECULE
IMPHY005987
 24 23 0 0 0
SMALL
GASTEIGER

@<TRIPOS>ATOM
      1 O           3.7320    0.7500    0.0000 O.3     1  UNL1       -0.4648
      2 O           2.8660   -0.7500    0.0000 O.2     1  UNL1       -0.2512
      3 C           6.3301    0.2500    0.0000 C.3     1  UNL1       -0.0465
      4 C           5.4641    0.7500    0.0000 C.3     1  UNL1       -0.0183
      5 C           7.1962    0.7500    0.0000 C.3     1  UNL1       -0.0349
      6 C           4.5981    0.2500    0.0000 C.3     1  UNL1        0.0925
      7 C           8.0622    0.2500    0.0000 C.2     1  UNL1       -0.0911
      8 C           2.8660    0.2500    0.0000 C.2     1  UNL1        0.3039
      9 C           8.9282    0.7500    0.0000 C.2     1  UNL1       -0.1026
     10 C           2.0000    0.7500    0.0000 C.3     1  UNL1        0.0332
     11 H           5.9316   -0.2249    0.0000 H       1  UNL1        0.0269
     12 H           6.7287   -0.2249    0.0000 H       1  UNL1        0.0269
     13 H           5.8626    1.2250    0.0000 H       1  UNL1        0.0298
     14 H           5.0656    1.2250    0.0000 H       1  UNL1        0.0298
     15 H           7.5947    1.2250    0.0000 H       1  UNL1        0.0307
     16 H           6.7976    1.2250    0.0000 H       1  UNL1        0.0307
     17 H           4.1996   -0.2249    0.0000 H       1  UNL1        0.0697
     18 H           4.9966   -0.2249    0.0000 H       1  UNL1        0.0697
     19 H           8.0622   -0.3700    0.0000 H       1  UNL1        0.0566
     20 H           9.4651    0.4400    0.0000 H       1  UNL1        0.0532
     21 H           8.9282    1.3700    0.0000 H       1  UNL1        0.0532
     22 H           2.3100    1.2869    0.0000 H       1  UNL1        0.0342
     23 H           1.4631    1.0600    0.0000 H       1  UNL1        0.0342
     24 H           1.6900    0.2131    0.0000 H       1  UNL1        0.0342
@<TRIPOS>BOND
     1     1     6    1
     2     1     8    1
     3     2     8    2
     4     3     4    1
     5     3     5    1
     6     3    11    1
     7     3    12    1
     8     4     6    1
     9     4    13    1
    10     4    14    1
    11     5     7    1
    12     5    15    1
    13     5    16    1
    14     6    17    1
    15     6    18    1
    16     7     9    2
    17     7    19    1
    18     8    10    1
    19     9    20    1
    20     9    21    1
    21    10    22    1
    22    10    23    1
    23    10    24    1
