@<TRIPOS>MOLECULE
IMPHY002173
 73 78 0 0 0
SMALL
GASTEIGER

@<TRIPOS>ATOM
      1 O           7.1594   -0.7116    0.0000 O.2     1  UNL1       -0.2914
      2 O           2.7448    2.0509    0.0000 O.2     1  UNL1       -0.5030
      3 O           2.0000    0.2169    0.0000 O.2     1  UNL1       -0.2837
      4 C           5.8994   -2.5292    0.0000 C.3     1  UNL1       -0.0225
      5 C           6.2084   -1.5782    0.0000 C.3     1  UNL1       -0.0179
      6 C           6.8780   -2.3215    0.0000 C.3     1  UNL1       -0.0423
      7 C           5.3994   -0.9904    0.0000 C.3     1  UNL1        0.0624
      8 C           4.8994   -2.5292    0.0000 C.3     1  UNL1       -0.0456
      9 C           4.5904   -1.5782    0.0000 C.3     1  UNL1       -0.0354
     10 C           5.5904   -3.4803    0.0000 C.3     1  UNL1       -0.0408
     11 C           4.5904   -0.4026    0.0000 C.2     1  UNL1       -0.0184
     12 C           6.2084   -0.4026    0.0000 C.2     1  UNL1        0.1705
     13 C           4.8994    0.5485    0.0000 C.2     1  UNL1       -0.0067
     14 C           5.8994    0.5485    0.0000 C.2     1  UNL1        0.0040
     15 C           4.8786    2.3485    0.0000 C.3     1  UNL1        0.0007
     16 C           5.9202    2.3485    0.0000 C.3     1  UNL1       -0.0222
     17 C           6.2595   -4.2234    0.0000 C.3     1  UNL1       -0.0622
     18 C           4.6122   -3.6882    0.0000 C.3     1  UNL1       -0.0622
     19 C           6.4340    1.4424    0.0000 C.3     1  UNL1       -0.0196
     20 C           4.3647    1.4424    0.0000 C.2     1  UNL1        0.0118
     21 C           3.5855   -0.4763    0.0000 C.2     1  UNL1        0.0102
     22 C           6.4771    3.2796    0.0000 C.3     1  UNL1       -0.0310
     23 C           4.3216    3.2796    0.0000 C.3     1  UNL1       -0.0432
     24 C           3.3717    1.2718    0.0000 C.2     1  UNL1        0.1682
     25 C           5.9419    4.2234    0.0000 C.3     1  UNL1       -0.0476
     26 C           2.9926    0.3383    0.0000 C.2     1  UNL1        0.2240
     27 C           3.1648   -1.3836    0.0000 C.3     1  UNL1       -0.0175
     28 C           3.8786    2.3485    0.0000 C.3     1  UNL1       -0.0551
     29 C           4.8569    4.2234    0.0000 C.3     1  UNL1       -0.0518
     30 C           7.3489    3.7696    0.0000 C.3     1  UNL1       -0.0595
     31 C           7.3373    2.7696    0.0000 C.3     1  UNL1       -0.0595
     32 C           2.1688   -1.4728    0.0000 C.3     1  UNL1       -0.0585
     33 C           3.7402   -2.2015    0.0000 C.3     1  UNL1       -0.0585
     34 H           6.7771   -0.9464    0.0000 H       1  UNL1        0.0319
     35 H           7.1102   -2.8963    0.0000 H       1  UNL1        0.0274
     36 H           7.4038   -1.9929    0.0000 H       1  UNL1        0.0274
     37 H           4.2929   -2.6581    0.0000 H       1  UNL1        0.0271
     38 H           4.9642   -3.1458    0.0000 H       1  UNL1        0.0271
     39 H           4.2804   -1.0412    0.0000 H       1  UNL1        0.0278
     40 H           4.0240   -1.8303    0.0000 H       1  UNL1        0.0278
     41 H           5.1755   -3.0195    0.0000 H       1  UNL1        0.0301
     42 H           6.7701    2.3386    0.0000 H       1  UNL1        0.0318
     43 H           4.4833   -3.0817    0.0000 H       1  UNL1        0.0233
     44 H           5.7987   -4.6383    0.0000 H       1  UNL1        0.0233
     45 H           6.6744   -4.6842    0.0000 H       1  UNL1        0.0233
     46 H           6.7202   -3.8086    0.0000 H       1  UNL1        0.0233
     47 H           4.0058   -3.8171    0.0000 H       1  UNL1        0.0233
     48 H           4.7411   -4.2946    0.0000 H       1  UNL1        0.0233
     49 H           6.9038    1.0378    0.0000 H       1  UNL1        0.0318
     50 H           6.9131    1.8360    0.0000 H       1  UNL1        0.0318
     51 H           3.8426    3.6733    0.0000 H       1  UNL1        0.0274
     52 H           3.8519    2.8750    0.0000 H       1  UNL1        0.0274
     53 H           6.5256    4.4325    0.0000 H       1  UNL1        0.0271
     54 H           5.8358    4.8343    0.0000 H       1  UNL1        0.0271
     55 H           2.9040   -1.9460    0.0000 H       1  UNL1        0.0345
     56 H           3.8786    2.9685    0.0000 H       1  UNL1        0.0238
     57 H           3.2586    2.3485    0.0000 H       1  UNL1        0.0238
     58 H           3.8786    1.7285    0.0000 H       1  UNL1        0.0238
     59 H           4.9630    4.8343    0.0000 H       1  UNL1        0.0266
     60 H           4.2732    4.4325    0.0000 H       1  UNL1        0.0266
     61 H           7.0211    2.2363    0.0000 H       1  UNL1        0.0235
     62 H           7.6526    3.2291    0.0000 H       1  UNL1        0.0235
     63 H           7.8894    4.0733    0.0000 H       1  UNL1        0.0235
     64 H           7.8706    2.4535    0.0000 H       1  UNL1        0.0235
     65 H           7.6535    3.3030    0.0000 H       1  UNL1        0.0235
     66 H           7.0451    4.3101    0.0000 H       1  UNL1        0.0235
     67 H           3.2330   -2.5582    0.0000 H       1  UNL1        0.0235
     68 H           4.0969   -2.7086    0.0000 H       1  UNL1        0.0235
     69 H           2.1135   -0.8553    0.0000 H       1  UNL1        0.0235
     70 H           4.2473   -1.8448    0.0000 H       1  UNL1        0.0235
     71 H           1.5513   -1.5282    0.0000 H       1  UNL1        0.0235
     72 H           2.2242   -2.0904    0.0000 H       1  UNL1        0.0235
     73 H           2.1321    1.9558    0.0000 H       1  UNL1        0.2923
@<TRIPOS>BOND
     1     1    12    2
     2     2    24    1
     3     2    73    1
     4     3    26    2
     5     4     5    1
     6     4     6    1
     7     4     8    1
     8     4    10    1
     9     5     6    1
    10     5     7    1
    11     5    34    1
    12     6    35    1
    13     6    36    1
    14     7     9    1
    15     7    11    1
    16     7    12    1
    17     8     9    1
    18     8    37    1
    19     8    38    1
    20     9    39    1
    21     9    40    1
    22    10    17    1
    23    10    18    1
    24    10    41    1
    25    11    13    1
    26    11    21    2
    27    12    14    1
    28    13    14    2
    29    13    20    1
    30    14    19    1
    31    15    16    1
    32    15    20    1
    33    15    23    1
    34    15    28    1
    35    16    19    1
    36    16    22    1
    37    16    42    1
    38    17    44    1
    39    17    45    1
    40    17    46    1
    41    18    43    1
    42    18    47    1
    43    18    48    1
    44    19    49    1
    45    19    50    1
    46    20    24    2
    47    21    26    1
    48    21    27    1
    49    22    25    1
    50    22    30    1
    51    22    31    1
    52    23    29    1
    53    23    51    1
    54    23    52    1
    55    24    26    1
    56    25    29    1
    57    25    53    1
    58    25    54    1
    59    27    32    1
    60    27    33    1
    61    27    55    1
    62    28    56    1
    63    28    57    1
    64    28    58    1
    65    29    59    1
    66    29    60    1
    67    30    62    1
    68    30    63    1
    69    30    66    1
    70    31    61    1
    71    31    64    1
    72    31    65    1
    73    32    69    1
    74    32    71    1
    75    32    72    1
    76    33    67    1
    77    33    68    1
    78    33    70    1
