@<TRIPOS>MOLECULE
IMPHY011669
 39 40 0 0 0
SMALL
GASTEIGER

@<TRIPOS>ATOM
      1 C           6.0315    1.0639    0.0000 C.3     1  UNL1       -0.0314
      2 C           4.6588    0.4719    0.0000 C.3     1  UNL1       -0.0079
      3 C           6.2903    2.0298    0.0000 C.3     1  UNL1       -0.0193
      4 C           5.5537    3.0125    0.0000 C.3     1  UNL1       -0.0429
      5 C           7.4304    0.5551    0.0000 C.3     1  UNL1       -0.0489
      6 C           4.3167    1.4116    0.0000 C.2     1  UNL1       -0.0673
      7 C           7.6892    1.5210    0.0000 C.3     1  UNL1       -0.0462
      8 C           3.7841   -0.0129    0.0000 C.3     1  UNL1       -0.0402
      9 C           4.8496   -0.5097    0.0000 C.3     1  UNL1       -0.0556
     10 C           3.4104    1.8342    0.0000 C.2     1  UNL1       -0.0987
     11 C           3.7667   -1.0128    0.0000 C.3     1  UNL1       -0.0337
     12 C           2.8921   -1.4976    0.0000 C.2     1  UNL1       -0.0853
     13 C           2.8746   -2.4974    0.0000 C.2     1  UNL1       -0.0796
     14 C           2.0000   -2.9822    0.0000 C.3     1  UNL1       -0.0440
     15 C           3.7318   -3.0125    0.0000 C.3     1  UNL1       -0.0440
     16 H           5.8115    0.2429    0.0000 H       1  UNL1        0.0309
     17 H           6.5103    2.8509    0.0000 H       1  UNL1        0.0346
     18 H           5.8715    3.5448    0.0000 H       1  UNL1        0.0274
     19 H           4.9405    3.1044    0.0000 H       1  UNL1        0.0274
     20 H           7.2355   -0.0335    0.0000 H       1  UNL1        0.0268
     21 H           8.0244    0.3773    0.0000 H       1  UNL1        0.0268
     22 H           8.2832    1.3432    0.0000 H       1  UNL1        0.0271
     23 H           7.8842    2.1096    0.0000 H       1  UNL1        0.0271
     24 H           3.5823    0.5733    0.0000 H       1  UNL1        0.0277
     25 H           3.1718   -0.1099    0.0000 H       1  UNL1        0.0277
     26 H           4.2410   -0.6280    0.0000 H       1  UNL1        0.0238
     27 H           4.9679   -1.1183    0.0000 H       1  UNL1        0.0238
     28 H           5.4582   -0.3914    0.0000 H       1  UNL1        0.0238
     29 H           3.3564    2.4518    0.0000 H       1  UNL1        0.0535
     30 H           2.9026    1.4786    0.0000 H       1  UNL1        0.0535
     31 H           3.9685   -1.5990    0.0000 H       1  UNL1        0.0308
     32 H           4.3791   -0.9158    0.0000 H       1  UNL1        0.0308
     33 H           2.3606   -1.1782    0.0000 H       1  UNL1        0.0571
     34 H           3.4125   -3.5439    0.0000 H       1  UNL1        0.0274
     35 H           4.2632   -3.3318    0.0000 H       1  UNL1        0.0274
     36 H           4.0511   -2.4810    0.0000 H       1  UNL1        0.0274
     37 H           1.6994   -2.4400    0.0000 H       1  UNL1        0.0274
     38 H           1.4577   -3.2828    0.0000 H       1  UNL1        0.0274
     39 H           2.3006   -3.5245    0.0000 H       1  UNL1        0.0274
@<TRIPOS>BOND
     1     1     2    1
     2     1     4    1
     3     1     5    1
     4     1    16    1
     5     2     6    1
     6     2     8    1
     7     2     9    1
     8     3     4    1
     9     3     6    1
    10     3     7    1
    11     3    17    1
    12     4    18    1
    13     4    19    1
    14     5     7    1
    15     5    20    1
    16     5    21    1
    17     6    10    2
    18     7    22    1
    19     7    23    1
    20     8    11    1
    21     8    24    1
    22     8    25    1
    23     9    26    1
    24     9    27    1
    25     9    28    1
    26    10    29    1
    27    10    30    1
    28    11    12    1
    29    11    31    1
    30    11    32    1
    31    12    13    2
    32    12    33    1
    33    13    14    1
    34    13    15    1
    35    14    37    1
    36    14    38    1
    37    14    39    1
    38    15    34    1
    39    15    35    1
    40    15    36    1
