@<TRIPOS>MOLECULE
IMPHY005189
 37 38 0 0 0
SMALL
GASTEIGER

@<TRIPOS>ATOM
      1 O           3.7320    0.8450    0.0000 O.3     1  UNL1       -0.3791
      2 O           8.0622    4.3450    0.0000 O.3     1  UNL1       -0.5068
      3 O           2.8660   -4.6550    0.0000 O.3     1  UNL1       -0.5068
      4 C           2.8660   -0.6550    0.0000 C.3     1  UNL1       -0.0041
      5 C           4.5981    2.3450    0.0000 C.3     1  UNL1       -0.0041
      6 C           3.7320   -0.1550    0.0000 C.3     1  UNL1        0.0516
      7 C           4.5981    1.3450    0.0000 C.3     1  UNL1        0.0516
      8 C           2.8660   -1.6550    0.0000 C.ar    1  UNL1       -0.0450
      9 C           5.4641    2.8450    0.0000 C.ar    1  UNL1       -0.0450
     10 C           6.3301    2.3450    0.0000 C.ar    1  UNL1       -0.0551
     11 C           2.0000   -2.1550    0.0000 C.ar    1  UNL1       -0.0551
     12 C           5.4641    3.8450    0.0000 C.ar    1  UNL1       -0.0551
     13 C           3.7320   -2.1550    0.0000 C.ar    1  UNL1       -0.0551
     14 C           2.0000   -3.1550    0.0000 C.ar    1  UNL1       -0.0199
     15 C           7.1962    2.8450    0.0000 C.ar    1  UNL1       -0.0199
     16 C           3.7320   -3.1550    0.0000 C.ar    1  UNL1       -0.0199
     17 C           6.3301    4.3450    0.0000 C.ar    1  UNL1       -0.0199
     18 C           7.1962    3.8450    0.0000 C.ar    1  UNL1        0.1169
     19 C           2.8660   -3.6550    0.0000 C.ar    1  UNL1        0.1169
     20 H           2.6540   -0.0724    0.0000 H       1  UNL1        0.0335
     21 H           2.2554   -0.7627    0.0000 H       1  UNL1        0.0335
     22 H           4.3860    2.9276    0.0000 H       1  UNL1        0.0335
     23 H           3.9875    2.2373    0.0000 H       1  UNL1        0.0335
     24 H           3.9441   -0.7376    0.0000 H       1  UNL1        0.0563
     25 H           4.3426   -0.0473    0.0000 H       1  UNL1        0.0563
     26 H           4.8101    0.7624    0.0000 H       1  UNL1        0.0563
     27 H           5.2087    1.4527    0.0000 H       1  UNL1        0.0563
     28 H           6.3301    1.7250    0.0000 H       1  UNL1        0.0621
     29 H           1.4631   -1.8450    0.0000 H       1  UNL1        0.0621
     30 H           4.9272    4.1550    0.0000 H       1  UNL1        0.0621
     31 H           4.2690   -1.8450    0.0000 H       1  UNL1        0.0621
     32 H           1.4631   -3.4650    0.0000 H       1  UNL1        0.0654
     33 H           7.7331    2.5350    0.0000 H       1  UNL1        0.0654
     34 H           4.2690   -3.4650    0.0000 H       1  UNL1        0.0654
     35 H           6.3301    4.9650    0.0000 H       1  UNL1        0.0654
     36 H           8.0622    4.9650    0.0000 H       1  UNL1        0.2921
     37 H           2.3291   -4.9650    0.0000 H       1  UNL1        0.2921
@<TRIPOS>BOND
     1     1     6    1
     2     1     7    1
     3     2    18    1
     4     2    36    1
     5     3    19    1
     6     3    37    1
     7     4     6    1
     8     4     8    1
     9     4    20    1
    10     4    21    1
    11     5     7    1
    12     5     9    1
    13     5    22    1
    14     5    23    1
    15     6    24    1
    16     6    25    1
    17     7    26    1
    18     7    27    1
    19     8    11   ar
    20     8    13   ar
    21     9    10   ar
    22     9    12   ar
    23    10    15   ar
    24    10    28    1
    25    11    14   ar
    26    11    29    1
    27    12    17   ar
    28    12    30    1
    29    13    16   ar
    30    13    31    1
    31    14    19   ar
    32    14    32    1
    33    15    18   ar
    34    15    33    1
    35    16    19   ar
    36    16    34    1
    37    17    18   ar
    38    17    35    1
