@<TRIPOS>MOLECULE
IMPHY004549
 22 23 0 0 0
SMALL
GASTEIGER

@<TRIPOS>ATOM
      1 O           7.2764    0.8047    0.0000 O.3     1  UNL1       -0.4526
      2 O           7.2764   -0.8047    0.0000 O.3     1  UNL1       -0.4526
      3 C           4.5981    0.5000    0.0000 C.ar    1  UNL1       -0.0400
      4 C           6.3301    0.5000    0.0000 C.ar    1  UNL1        0.1665
      5 C           6.3301   -0.5000    0.0000 C.ar    1  UNL1        0.1662
      6 C           5.4641    1.0000    0.0000 C.ar    1  UNL1       -0.0127
      7 C           3.7320    1.0000    0.0000 C.3     1  UNL1       -0.0096
      8 C           4.5981   -0.5000    0.0000 C.ar    1  UNL1       -0.0546
      9 C           5.4641   -1.0000    0.0000 C.ar    1  UNL1       -0.0159
     10 C           7.8600    0.0000    0.0000 C.3     1  UNL1        0.2332
     11 C           2.8660    0.5000    0.0000 C.2     1  UNL1       -0.0868
     12 C           2.0000    1.0000    0.0000 C.2     1  UNL1       -0.1023
     13 H           5.4641    1.6200    0.0000 H       1  UNL1        0.0658
     14 H           4.1306    1.4750    0.0000 H       1  UNL1        0.0355
     15 H           3.3335    1.4750    0.0000 H       1  UNL1        0.0355
     16 H           4.0611   -0.8100    0.0000 H       1  UNL1        0.0622
     17 H           5.4641   -1.6200    0.0000 H       1  UNL1        0.0655
     18 H           8.3208   -0.4147    0.0000 H       1  UNL1        0.1166
     19 H           8.3208    0.4147    0.0000 H       1  UNL1        0.1166
     20 H           2.8660   -0.1200    0.0000 H       1  UNL1        0.0570
     21 H           2.0000    1.6200    0.0000 H       1  UNL1        0.0532
     22 H           1.4631    0.6900    0.0000 H       1  UNL1        0.0532
@<TRIPOS>BOND
     1     1     4    1
     2     1    10    1
     3     2     5    1
     4     2    10    1
     5     3     6   ar
     6     3     7    1
     7     3     8   ar
     8     4     5   ar
     9     4     6   ar
    10     5     9   ar
    11     6    13    1
    12     7    11    1
    13     7    14    1
    14     7    15    1
    15     8     9   ar
    16     8    16    1
    17     9    17    1
    18    10    18    1
    19    10    19    1
    20    11    12    2
    21    11    20    1
    22    12    21    1
    23    12    22    1
