@<TRIPOS>MOLECULE
IMPHY007445
 27 26 0 0 0
SMALL
GASTEIGER

@<TRIPOS>ATOM
      1 O           4.5981   -0.8100    0.0000 O.3     1  UNL1       -0.3837
      2 C           4.5981    0.1900    0.0000 C.3     1  UNL1        0.0923
      3 C           3.7320    0.6900    0.0000 C.2     1  UNL1       -0.0533
      4 C           2.8660    0.1900    0.0000 C.2     1  UNL1       -0.0769
      5 C           5.4641    0.6900    0.0000 C.2     1  UNL1       -0.0492
      6 C           6.3301    0.1900    0.0000 C.2     1  UNL1       -0.0522
      7 C           2.0000    0.6900    0.0000 C.3     1  UNL1       -0.0440
      8 C           2.8660   -0.8100    0.0000 C.3     1  UNL1       -0.0440
      9 C           7.1962    0.6900    0.0000 C.3     1  UNL1       -0.0399
     10 C           6.3301   -0.8100    0.0000 C.2     1  UNL1       -0.0662
     11 C           7.1962   -1.3100    0.0000 C.2     1  UNL1       -0.0985
     12 H           5.1350   -0.1200    0.0000 H       1  UNL1        0.0683
     13 H           3.7320    1.3100    0.0000 H       1  UNL1        0.0600
     14 H           5.4641    1.3100    0.0000 H       1  UNL1        0.0603
     15 H           2.3100    1.2269    0.0000 H       1  UNL1        0.0274
     16 H           1.4631    1.0000    0.0000 H       1  UNL1        0.0274
     17 H           1.6900    0.1531    0.0000 H       1  UNL1        0.0274
     18 H           2.2460   -0.8100    0.0000 H       1  UNL1        0.0274
     19 H           2.8660   -1.4300    0.0000 H       1  UNL1        0.0274
     20 H           3.4860   -0.8100    0.0000 H       1  UNL1        0.0274
     21 H           7.5062    0.1531    0.0000 H       1  UNL1        0.0277
     22 H           7.7331    1.0000    0.0000 H       1  UNL1        0.0277
     23 H           6.8862    1.2269    0.0000 H       1  UNL1        0.0277
     24 H           4.0611   -1.1200    0.0000 H       1  UNL1        0.2106
     25 H           5.7932   -1.1200    0.0000 H       1  UNL1        0.0614
     26 H           7.1962   -1.9300    0.0000 H       1  UNL1        0.0535
     27 H           7.7331   -1.0000    0.0000 H       1  UNL1        0.0535
@<TRIPOS>BOND
     1     1     2    1
     2     1    24    1
     3     2     3    1
     4     2     5    1
     5     2    12    1
     6     3     4    2
     7     3    13    1
     8     4     7    1
     9     4     8    1
    10     5     6    2
    11     5    14    1
    12     6     9    1
    13     6    10    1
    14     7    15    1
    15     7    16    1
    16     7    17    1
    17     8    18    1
    18     8    19    1
    19     8    20    1
    20     9    21    1
    21     9    22    1
    22     9    23    1
    23    10    11    2
    24    10    25    1
    25    11    26    1
    26    11    27    1
