@<TRIPOS>MOLECULE
IMPHY006285
 67 71 0 0 0
SMALL
GASTEIGER

@<TRIPOS>ATOM
      1 O           7.3380    0.9405    0.0000 O.3     1  UNL1       -0.3585
      2 O           7.9657   -1.9063    0.0000 O.3     1  UNL1       -0.4578
      3 O           5.3194    1.6441    0.0000 O.3     1  UNL1       -0.3888
      4 O           7.0514    2.6441    0.0000 O.3     1  UNL1       -0.3858
      5 O           9.6792    0.1796    0.0000 O.3     1  UNL1       -0.4464
      6 O           9.4174    2.0101    0.0000 O.3     1  UNL1       -0.4659
      7 O           7.9174    2.8761    0.0000 O.2     1  UNL1       -0.2475
      8 O           9.7272   -1.8589    0.0000 O.2     1  UNL1       -0.2466
      9 O           2.5405    0.1834    0.0000 O.2     1  UNL1       -0.5034
     10 O           2.5244   -1.9082    0.0000 O.2     1  UNL1       -0.2838
     11 O          10.5860   -1.2961    0.0000 O.2     1  UNL1       -0.2456
     12 C           7.0514   -0.3559    0.0000 C.3     1  UNL1        0.0477
     13 C           6.1854    0.1441    0.0000 C.3     1  UNL1        0.0118
     14 C           7.9174    0.1441    0.0000 C.3     1  UNL1        0.0603
     15 C           7.9174    1.1441    0.0000 C.3     1  UNL1        0.2007
     16 C           7.0675   -1.3974    0.0000 C.3     1  UNL1        0.1154
     17 C           5.2754   -0.3628    0.0000 C.3     1  UNL1        0.0174
     18 C           6.1854    1.1441    0.0000 C.3     1  UNL1        0.0889
     19 C           6.9380    0.2477    0.0000 C.3     1  UNL1        0.0591
     20 C           7.0514    1.6441    0.0000 C.3     1  UNL1        0.1210
     21 C           8.8272   -0.3439    0.0000 C.3     1  UNL1        0.2059
     22 C           6.1694   -1.9252    0.0000 C.3     1  UNL1        0.0077
     23 C           5.2674   -1.4044    0.0000 C.2     1  UNL1       -0.0493
     24 C           8.4174    2.0101    0.0000 C.2     1  UNL1        0.3423
     25 C           4.9406    0.5795    0.0000 C.3     1  UNL1       -0.0518
     26 C           8.8515   -1.3760    0.0000 C.2     1  UNL1        0.3491
     27 C           4.3486    0.2013    0.0000 C.2     1  UNL1       -0.0284
     28 C           4.3319   -1.9541    0.0000 C.2     1  UNL1        0.0001
     29 C           3.4007   -0.3266    0.0000 C.2     1  UNL1        0.1606
     30 C           3.3923   -1.4116    0.0000 C.2     1  UNL1        0.2226
     31 C           4.3358   -2.9541    0.0000 C.3     1  UNL1       -0.0360
     32 C          10.5586   -0.2965    0.0000 C.2     1  UNL1        0.3327
     33 C           9.9174    2.8761    0.0000 C.3     1  UNL1        0.0818
     34 C          11.4106    0.2271    0.0000 C.2     1  UNL1        0.0212
     35 C          12.2900   -0.2490    0.0000 C.2     1  UNL1       -0.0690
     36 C          13.1420    0.2745    0.0000 C.3     1  UNL1       -0.0435
     37 C          12.3174   -1.2486    0.0000 C.3     1  UNL1       -0.0435
     38 H           5.4493    0.5691    0.0000 H       1  UNL1        0.0345
     39 H           8.3424   -0.5920    0.0000 H       1  UNL1        0.0384
     40 H           7.0742   -2.2474    0.0000 H       1  UNL1        0.0743
     41 H           6.1854    1.7641    0.0000 H       1  UNL1        0.0623
     42 H           6.5109    0.6971    0.0000 H       1  UNL1        0.0567
     43 H           6.3861   -0.0347    0.0000 H       1  UNL1        0.0567
     44 H           7.5884    1.9541    0.0000 H       1  UNL1        0.0654
     45 H           9.3719   -0.6402    0.0000 H       1  UNL1        0.0857
     46 H           5.7721   -2.4012    0.0000 H       1  UNL1        0.0346
     47 H           6.5704   -2.3981    0.0000 H       1  UNL1        0.0346
     48 H           5.5248    0.7871    0.0000 H       1  UNL1        0.0241
     49 H           4.7331    1.1638    0.0000 H       1  UNL1        0.0241
     50 H           4.3564    0.3720    0.0000 H       1  UNL1        0.0241
     51 H           4.3605    0.8212    0.0000 H       1  UNL1        0.0618
     52 H           5.3194    2.2641    0.0000 H       1  UNL1        0.2099
     53 H           6.5145    2.9541    0.0000 H       1  UNL1        0.2100
     54 H           3.7158   -2.9565    0.0000 H       1  UNL1        0.0279
     55 H           4.3382   -3.5741    0.0000 H       1  UNL1        0.0279
     56 H           4.9558   -2.9517    0.0000 H       1  UNL1        0.0279
     57 H           2.0000   -0.1204    0.0000 H       1  UNL1        0.2923
     58 H          10.4544    2.5661    0.0000 H       1  UNL1        0.0661
     59 H          10.2274    3.4131    0.0000 H       1  UNL1        0.0661
     60 H           9.3805    3.1861    0.0000 H       1  UNL1        0.0661
     61 H          11.3936    0.8468    0.0000 H       1  UNL1        0.0688
     62 H          11.6977   -1.2656    0.0000 H       1  UNL1        0.0274
     63 H          12.3344   -1.8684    0.0000 H       1  UNL1        0.0274
     64 H          12.9372   -1.2317    0.0000 H       1  UNL1        0.0274
     65 H          13.4666   -0.2537    0.0000 H       1  UNL1        0.0274
     66 H          13.6703    0.5991    0.0000 H       1  UNL1        0.0274
     67 H          12.8174    0.8028    0.0000 H       1  UNL1        0.0274
@<TRIPOS>BOND
     1     1    15    1
     2     1    19    1
     3     2    16    1
     4     2    26    1
     5    18     3    1
     6     3    52    1
     7    20     4    1
     8     4    53    1
     9    21     5    1
    10     5    32    1
    11     6    24    1
    12     6    33    1
    13     7    24    2
    14     8    26    2
    15     9    29    1
    16     9    57    1
    17    10    30    2
    18    11    32    2
    19    12    13    1
    20    12    14    1
    21    12    16    1
    22    12    19    1
    23    13    17    1
    24    13    18    1
    25    13    38    1
    26    14    15    1
    27    14    21    1
    28    14    39    1
    29    15    20    1
    30    15    24    1
    31    16    22    1
    32    16    40    1
    33    17    23    1
    34    17    25    1
    35    17    27    1
    36    18    20    1
    37    18    41    1
    38    19    42    1
    39    19    43    1
    40    20    44    1
    41    21    26    1
    42    21    45    1
    43    22    23    1
    44    22    46    1
    45    22    47    1
    46    23    28    2
    47    25    48    1
    48    25    49    1
    49    25    50    1
    50    27    29    2
    51    27    51    1
    52    28    30    1
    53    28    31    1
    54    29    30    1
    55    31    54    1
    56    31    55    1
    57    31    56    1
    58    32    34    1
    59    33    58    1
    60    33    59    1
    61    33    60    1
    62    34    35    2
    63    34    61    1
    64    35    36    1
    65    35    37    1
    66    36    65    1
    67    36    66    1
    68    36    67    1
    69    37    62    1
    70    37    63    1
    71    37    64    1
