@<TRIPOS>MOLECULE
IMPHY003477
 25 25 0 0 0
SMALL
GASTEIGER

@<TRIPOS>ATOM
      1 O           4.2690    2.5950    0.0000 O.3     1  UNL1       -0.5033
      2 O           2.5369    1.5950    0.0000 O.3     1  UNL1       -0.5033
      3 N           6.8671   -1.9050    0.0000 N.3     1  UNL1       -0.3187
      4 C           6.0010   -0.4050    0.0000 C.3     1  UNL1       -0.0150
      5 C           5.1350    0.0950    0.0000 C.ar    1  UNL1       -0.0425
      6 C           6.0010   -1.4050    0.0000 C.3     1  UNL1       -0.0004
      7 C           5.1350    1.0950    0.0000 C.ar    1  UNL1       -0.0133
      8 C           4.2690   -0.4050    0.0000 C.ar    1  UNL1       -0.0549
      9 C           4.2690    1.5950    0.0000 C.ar    1  UNL1        0.1585
     10 C           3.4030    0.0950    0.0000 C.ar    1  UNL1       -0.0163
     11 C           3.4030    1.0950    0.0000 C.ar    1  UNL1        0.1582
     12 C           6.8671   -2.9050    0.0000 C.3     1  UNL1       -0.0158
     13 H           6.6116   -0.5127    0.0000 H       1  UNL1        0.0325
     14 H           6.2131    0.1776    0.0000 H       1  UNL1        0.0325
     15 H           5.3905   -1.2973    0.0000 H       1  UNL1        0.0427
     16 H           5.7890   -1.9876    0.0000 H       1  UNL1        0.0427
     17 H           5.6720    1.4050    0.0000 H       1  UNL1        0.0658
     18 H           4.2690   -1.0250    0.0000 H       1  UNL1        0.0621
     19 H           7.4040   -1.5950    0.0000 H       1  UNL1        0.1216
     20 H           2.8660   -0.2150    0.0000 H       1  UNL1        0.0655
     21 H           6.2471   -2.9050    0.0000 H       1  UNL1        0.0388
     22 H           6.8671   -3.5250    0.0000 H       1  UNL1        0.0388
     23 H           7.4871   -2.9050    0.0000 H       1  UNL1        0.0388
     24 H           4.8059    2.9050    0.0000 H       1  UNL1        0.2923
     25 H           2.0000    1.2850    0.0000 H       1  UNL1        0.2923
@<TRIPOS>BOND
     1     1     9    1
     2     1    24    1
     3     2    11    1
     4     2    25    1
     5     3     6    1
     6     3    12    1
     7     3    19    1
     8     4     5    1
     9     4     6    1
    10     4    13    1
    11     4    14    1
    12     5     7   ar
    13     5     8   ar
    14     6    15    1
    15     6    16    1
    16     7     9   ar
    17     7    17    1
    18     8    10   ar
    19     8    18    1
    20     9    11   ar
    21    10    11   ar
    22    10    20    1
    23    12    21    1
    24    12    22    1
    25    12    23    1
