@<TRIPOS>MOLECULE
IMPHY014315
 33 35 0 0 0
SMALL
GASTEIGER

@<TRIPOS>ATOM
      1 O           4.6660   -1.4502    0.0000 O.2     1  UNL1       -0.4542
      2 O           6.4144    1.5844    0.0000 O.3     1  UNL1       -0.4905
      3 O           8.1962    0.5739    0.0000 O.3     1  UNL1       -0.4885
      4 O           4.6660    1.5498    0.0000 O.2     1  UNL1       -0.2861
      5 O           8.1962   -1.4744    0.0000 O.3     1  UNL1       -0.5031
      6 O           2.9176    1.5844    0.0000 O.3     1  UNL1       -0.5059
      7 C           5.5321    0.0498    0.0000 C.ar    1  UNL1        0.1101
      8 C           5.5321   -0.9502    0.0000 C.ar    1  UNL1        0.1465
      9 C           3.8000    0.0498    0.0000 C.ar    1  UNL1        0.1059
     10 C           4.6660    0.5498    0.0000 C.ar    1  UNL1        0.2074
     11 C           6.4260    0.5844    0.0000 C.ar    1  UNL1        0.1796
     12 C           3.8000   -0.9502    0.0000 C.ar    1  UNL1        0.1428
     13 C           7.3321    0.0706    0.0000 C.ar    1  UNL1        0.2042
     14 C           6.4260   -1.4849    0.0000 C.ar    1  UNL1        0.0268
     15 C           7.3321   -0.9710    0.0000 C.ar    1  UNL1        0.1657
     16 C           2.9061    0.5844    0.0000 C.ar    1  UNL1        0.1312
     17 C           2.9061   -1.4849    0.0000 C.ar    1  UNL1       -0.0184
     18 C           2.0000    0.0706    0.0000 C.ar    1  UNL1       -0.0192
     19 C           2.0000   -0.9710    0.0000 C.ar    1  UNL1       -0.0548
     20 C           7.2746    2.0944    0.0000 C.3     1  UNL1        0.0790
     21 C           9.0641    0.0773    0.0000 C.3     1  UNL1        0.0791
     22 H           6.4188   -2.1048    0.0000 H       1  UNL1        0.0692
     23 H           2.9132   -2.1048    0.0000 H       1  UNL1        0.0654
     24 H           1.4643    0.3827    0.0000 H       1  UNL1        0.0654
     25 H           1.4643   -1.2831    0.0000 H       1  UNL1        0.0620
     26 H           7.5908    1.5610    0.0000 H       1  UNL1        0.0660
     27 H           7.8079    2.4106    0.0000 H       1  UNL1        0.0660
     28 H           6.9584    2.6277    0.0000 H       1  UNL1        0.0660
     29 H           8.1938   -2.0944    0.0000 H       1  UNL1        0.2923
     30 H           2.3843    1.9006    0.0000 H       1  UNL1        0.2922
     31 H           8.7562   -0.4608    0.0000 H       1  UNL1        0.0660
     32 H           9.6022   -0.2307    0.0000 H       1  UNL1        0.0660
     33 H           9.3720    0.6154    0.0000 H       1  UNL1        0.0660
@<TRIPOS>BOND
     1     1     8   ar
     2     1    12   ar
     3     2    11    1
     4     2    20    1
     5     3    13    1
     6     3    21    1
     7     4    10    2
     8     5    15    1
     9     5    29    1
    10     6    16    1
    11     6    30    1
    12     7     8   ar
    13     7    10   ar
    14     7    11   ar
    15     8    14   ar
    16     9    10   ar
    17     9    12   ar
    18     9    16   ar
    19    11    13   ar
    20    12    17   ar
    21    13    15   ar
    22    14    15   ar
    23    14    22    1
    24    16    18   ar
    25    17    19   ar
    26    17    23    1
    27    18    19   ar
    28    18    24    1
    29    19    25    1
    30    20    26    1
    31    20    27    1
    32    20    28    1
    33    21    31    1
    34    21    32    1
    35    21    33    1
