@<TRIPOS>MOLECULE
IMPHY003165
 32 31 0 0 0
SMALL
GASTEIGER

@<TRIPOS>ATOM
      1 N           6.8671   -0.2500    0.0000 N.3     1  UNL1       -0.3160
      2 N          11.1972    0.2500    0.0000 N.3     1  UNL1       -0.3300
      3 N           2.5369    0.2500    0.0000 N.3     1  UNL1       -0.3300
      4 C           5.1350   -0.2500    0.0000 C.3     1  UNL1       -0.0393
      5 C           8.5991   -0.2500    0.0000 C.3     1  UNL1       -0.0393
      6 C           7.7331    0.2500    0.0000 C.3     1  UNL1       -0.0041
      7 C           6.0010    0.2500    0.0000 C.3     1  UNL1       -0.0041
      8 C           9.4651    0.2500    0.0000 C.3     1  UNL1       -0.0395
      9 C           4.2690    0.2500    0.0000 C.3     1  UNL1       -0.0395
     10 C           3.4030   -0.2500    0.0000 C.3     1  UNL1       -0.0069
     11 C          10.3312   -0.2500    0.0000 C.3     1  UNL1       -0.0069
     12 H           8.2006   -0.7249    0.0000 H       1  UNL1        0.0278
     13 H           8.9976   -0.7249    0.0000 H       1  UNL1        0.0278
     14 H           4.7365   -0.7249    0.0000 H       1  UNL1        0.0278
     15 H           5.5335   -0.7249    0.0000 H       1  UNL1        0.0278
     16 H           6.3996    0.7249    0.0000 H       1  UNL1        0.0424
     17 H           5.6025    0.7249    0.0000 H       1  UNL1        0.0424
     18 H           8.1316    0.7249    0.0000 H       1  UNL1        0.0424
     19 H           7.3346    0.7249    0.0000 H       1  UNL1        0.0424
     20 H           9.8637    0.7249    0.0000 H       1  UNL1        0.0278
     21 H           9.0666    0.7249    0.0000 H       1  UNL1        0.0278
     22 H           4.6675    0.7249    0.0000 H       1  UNL1        0.0278
     23 H           3.8705    0.7249    0.0000 H       1  UNL1        0.0278
     24 H           6.8671   -0.8700    0.0000 H       1  UNL1        0.1219
     25 H           9.9326   -0.7249    0.0000 H       1  UNL1        0.0422
     26 H          10.7297   -0.7249    0.0000 H       1  UNL1        0.0422
     27 H           3.0044   -0.7249    0.0000 H       1  UNL1        0.0422
     28 H           3.8015   -0.7249    0.0000 H       1  UNL1        0.0422
     29 H          11.7341   -0.0600    0.0000 H       1  UNL1        0.1182
     30 H          11.1972    0.8700    0.0000 H       1  UNL1        0.1182
     31 H           2.0000   -0.0600    0.0000 H       1  UNL1        0.1182
     32 H           2.5369    0.8700    0.0000 H       1  UNL1        0.1182
@<TRIPOS>BOND
     1     1     6    1
     2     1     7    1
     3     1    24    1
     4     2    11    1
     5     2    29    1
     6     2    30    1
     7     3    10    1
     8     3    31    1
     9     3    32    1
    10     4     7    1
    11     4     9    1
    12     4    14    1
    13     4    15    1
    14     5     6    1
    15     5     8    1
    16     5    12    1
    17     5    13    1
    18     6    18    1
    19     6    19    1
    20     7    16    1
    21     7    17    1
    22     8    11    1
    23     8    20    1
    24     8    21    1
    25     9    10    1
    26     9    22    1
    27     9    23    1
    28    10    27    1
    29    10    28    1
    30    11    25    1
    31    11    26    1
