@<TRIPOS>MOLECULE
IMPHY001708
 47 49 0 0 0
SMALL
GASTEIGER

@<TRIPOS>ATOM
      1 O           6.8671   -0.6296    0.0000 O.3     1  UNL1       -0.3093
      2 O           5.1350   -0.6296    0.0000 O.3     1  UNL1       -0.3404
      3 O           6.0010    0.8704    0.0000 O.2     1  UNL1       -0.4699
      4 O           6.8671   -2.6296    0.0000 O.3     1  UNL1       -0.3841
      5 O           5.1350   -3.6296    0.0000 O.3     1  UNL1       -0.3864
      6 O           3.4030   -2.6296    0.0000 O.3     1  UNL1       -0.3865
      7 O           7.7490    3.9396    0.0000 O.3     1  UNL1       -0.4613
      8 O           2.5369   -1.1296    0.0000 O.3     1  UNL1       -0.3924
      9 O           5.9793    3.9018    0.0000 O.2     1  UNL1       -0.2452
     10 C           7.7331    1.8704    0.0000 C.3     1  UNL1        0.0088
     11 C           7.7331    0.8704    0.0000 C.3     1  UNL1        0.0467
     12 C           6.0010   -1.1296    0.0000 C.3     1  UNL1        0.1918
     13 C           6.0010   -2.1296    0.0000 C.3     1  UNL1        0.1342
     14 C           6.8671    0.3704    0.0000 C.3     1  UNL1        0.2102
     15 C           5.1350   -2.6296    0.0000 C.3     1  UNL1        0.1141
     16 C           4.2690   -2.1296    0.0000 C.3     1  UNL1        0.1119
     17 C           4.2690   -1.1296    0.0000 C.3     1  UNL1        0.1130
     18 C           8.6431    2.3772    0.0000 C.3     1  UNL1       -0.0106
     19 C           6.8671    2.3704    0.0000 C.2     1  UNL1        0.0747
     20 C           8.6511    3.4188    0.0000 C.3     1  UNL1        0.0934
     21 C           8.5991    0.3704    0.0000 C.2     1  UNL1       -0.0816
     22 C           3.4030   -0.6296    0.0000 C.3     1  UNL1        0.0730
     23 C           6.0010    1.8704    0.0000 C.2     1  UNL1        0.0981
     24 C           6.8510    3.4119    0.0000 C.2     1  UNL1        0.3384
     25 C           9.4651    0.8704    0.0000 C.2     1  UNL1       -0.1022
     26 H           8.4659    1.4397    0.0000 H       1  UNL1        0.0361
     27 H           7.7331    0.2504    0.0000 H       1  UNL1        0.0410
     28 H           6.5380   -1.4396    0.0000 H       1  UNL1        0.0939
     29 H           6.0010   -2.7496    0.0000 H       1  UNL1        0.0671
     30 H           4.5981   -2.9396    0.0000 H       1  UNL1        0.0648
     31 H           6.3301    0.0604    0.0000 H       1  UNL1        0.1062
     32 H           3.7320   -1.8196    0.0000 H       1  UNL1        0.0647
     33 H           4.2690   -0.5096    0.0000 H       1  UNL1        0.0647
     34 H           8.8476    1.7919    0.0000 H       1  UNL1        0.0304
     35 H           9.2547    2.4786    0.0000 H       1  UNL1        0.0304
     36 H           9.2611    3.3080    0.0000 H       1  UNL1        0.0698
     37 H           8.8647    4.0009    0.0000 H       1  UNL1        0.0698
     38 H           8.5991   -0.2496    0.0000 H       1  UNL1        0.0571
     39 H           3.8015   -0.1547    0.0000 H       1  UNL1        0.0584
     40 H           3.0044   -0.1547    0.0000 H       1  UNL1        0.0584
     41 H           5.4641    2.1804    0.0000 H       1  UNL1        0.1029
     42 H           6.8671   -3.2496    0.0000 H       1  UNL1        0.2101
     43 H           4.5981   -3.9396    0.0000 H       1  UNL1        0.2100
     44 H           3.4030   -3.2496    0.0000 H       1  UNL1        0.2100
     45 H          10.0021    0.5604    0.0000 H       1  UNL1        0.0532
     46 H           9.4651    1.4904    0.0000 H       1  UNL1        0.0532
     47 H           2.0000   -0.8196    0.0000 H       1  UNL1        0.2095
@<TRIPOS>BOND
     1    12     1    1
     2    14     1    1
     3     2    12    1
     4     2    17    1
     5     3    14    1
     6     3    23    1
     7    13     4    1
     8     4    42    1
     9    15     5    1
    10     5    43    1
    11    16     6    1
    12     6    44    1
    13     7    20    1
    14     7    24    1
    15     8    22    1
    16     8    47    1
    17     9    24    2
    18    10    11    1
    19    10    18    1
    20    10    19    1
    21    10    26    1
    22    11    14    1
    23    11    21    1
    24    11    27    1
    25    12    13    1
    26    12    28    1
    27    13    15    1
    28    13    29    1
    29    14    31    1
    30    15    16    1
    31    15    30    1
    32    16    17    1
    33    16    32    1
    34    17    22    1
    35    17    33    1
    36    18    20    1
    37    18    34    1
    38    18    35    1
    39    19    23    2
    40    19    24    1
    41    20    36    1
    42    20    37    1
    43    21    25    2
    44    21    38    1
    45    22    39    1
    46    22    40    1
    47    23    41    1
    48    25    45    1
    49    25    46    1
