@<TRIPOS>MOLECULE
IMPHY014282
 50 54 0 0 0
SMALL
GASTEIGER

@<TRIPOS>ATOM
      1 O           3.7670    1.5495    0.0000 O.3     1  UNL1       -0.3791
      2 O           6.2596   -2.7478    0.0000 O.3     1  UNL1       -0.3739
      3 O           2.6079    0.0904    0.0000 O.3     1  UNL1       -0.4526
      4 O           2.6079   -1.5860    0.0000 O.3     1  UNL1       -0.4526
      5 N           7.1256   -0.2478    0.0000 N.3     1  UNL1       -0.2861
      6 C           6.2596    0.2522    0.0000 C.3     1  UNL1        0.0714
      7 C           6.4688    1.2240    0.0000 C.2     1  UNL1       -0.0474
      8 C           5.2440    0.4545    0.0000 C.3     1  UNL1        0.0005
      9 C           5.3935   -0.2478    0.0000 C.ar    1  UNL1       -0.0137
     10 C           7.8626    0.4193    0.0000 C.3     1  UNL1        0.0038
     11 C           7.4575    1.3271    0.0000 C.3     1  UNL1       -0.0168
     12 C           4.7664    1.5159    0.0000 C.3     1  UNL1        0.0666
     13 C           7.1256   -1.2478    0.0000 C.3     1  UNL1        0.0305
     14 C           5.3086    2.3618    0.0000 C.3     1  UNL1        0.0009
     15 C           6.1666    2.2144    0.0000 C.2     1  UNL1       -0.0774
     16 C           6.2596   -1.7478    0.0000 C.3     1  UNL1        0.0964
     17 C           5.3935   -1.2478    0.0000 C.ar    1  UNL1       -0.0087
     18 C           4.4996    0.2869    0.0000 C.ar    1  UNL1       -0.0105
     19 C           4.8449    3.2478    0.0000 C.3     1  UNL1       -0.0566
     20 C           4.4996   -1.7825    0.0000 C.ar    1  UNL1       -0.0101
     21 C           3.5935   -0.2270    0.0000 C.ar    1  UNL1        0.1666
     22 C           3.5935   -1.2686    0.0000 C.ar    1  UNL1        0.1666
     23 C           3.2964    2.4319    0.0000 C.3     1  UNL1        0.0368
     24 C           7.1256   -3.2478    0.0000 C.3     1  UNL1        0.0373
     25 C           2.0000   -0.7478    0.0000 C.3     1  UNL1        0.2332
     26 H           4.6385    0.3214    0.0000 H       1  UNL1        0.0315
     27 H           5.2502   -0.1655    0.0000 H       1  UNL1        0.0315
     28 H           8.2280   -0.0816    0.0000 H       1  UNL1        0.0430
     29 H           8.3991    0.7301    0.0000 H       1  UNL1        0.0430
     30 H           8.0471    1.5188    0.0000 H       1  UNL1        0.0323
     31 H           7.3288    1.9336    0.0000 H       1  UNL1        0.0323
     32 H           4.4781    2.0648    0.0000 H       1  UNL1        0.0602
     33 H           7.3376   -1.8304    0.0000 H       1  UNL1        0.0456
     34 H           7.7362   -1.1401    0.0000 H       1  UNL1        0.0456
     35 H           5.6736    2.8630    0.0000 H       1  UNL1        0.0365
     36 H           6.5765    2.6795    0.0000 H       1  UNL1        0.0576
     37 H           6.7965   -2.0578    0.0000 H       1  UNL1        0.0659
     38 H           4.5068    0.9068    0.0000 H       1  UNL1        0.0659
     39 H           5.3942    3.5353    0.0000 H       1  UNL1        0.0236
     40 H           4.5573    3.7971    0.0000 H       1  UNL1        0.0236
     41 H           4.2956    2.9603    0.0000 H       1  UNL1        0.0236
     42 H           4.5068   -2.4024    0.0000 H       1  UNL1        0.0659
     43 H           3.8434    2.7236    0.0000 H       1  UNL1        0.0524
     44 H           3.0046    2.9789    0.0000 H       1  UNL1        0.0524
     45 H           2.7493    2.1401    0.0000 H       1  UNL1        0.0524
     46 H           6.8156   -3.7847    0.0000 H       1  UNL1        0.0524
     47 H           7.6625   -3.5578    0.0000 H       1  UNL1        0.0524
     48 H           7.4356   -2.7109    0.0000 H       1  UNL1        0.0524
     49 H           1.5391   -0.3331    0.0000 H       1  UNL1        0.1166
     50 H           1.5391   -1.1625    0.0000 H       1  UNL1        0.1166
@<TRIPOS>BOND
     1    12     1    1
     2     1    23    1
     3    16     2    1
     4     2    24    1
     5     3    21    1
     6     3    25    1
     7     4    22    1
     8     4    25    1
     9     5     6    1
    10     5    10    1
    11     5    13    1
    12     6     7    1
    13     6     8    1
    14     6     9    1
    15     7    11    1
    16     7    15    2
    17     8    12    1
    18     8    26    1
    19     8    27    1
    20     9    17   ar
    21     9    18   ar
    22    10    11    1
    23    10    28    1
    24    10    29    1
    25    11    30    1
    26    11    31    1
    27    12    14    1
    28    12    32    1
    29    13    16    1
    30    13    33    1
    31    13    34    1
    32    14    15    1
    33    14    19    1
    34    14    35    1
    35    15    36    1
    36    16    17    1
    37    16    37    1
    38    17    20   ar
    39    18    21   ar
    40    18    38    1
    41    19    39    1
    42    19    40    1
    43    19    41    1
    44    20    22   ar
    45    20    42    1
    46    21    22   ar
    47    23    43    1
    48    23    44    1
    49    23    45    1
    50    24    46    1
    51    24    47    1
    52    24    48    1
    53    25    49    1
    54    25    50    1
