@<TRIPOS>MOLECULE
IMPHY000612
 39 41 0 0 0
SMALL
GASTEIGER

@<TRIPOS>ATOM
      1 O           3.9061    1.5000    0.0000 O.3     1  UNL1       -0.4853
      2 O           7.3981   -0.5346    0.0000 O.3     1  UNL1       -0.5053
      3 O           6.5320   -2.0346    0.0000 O.3     1  UNL1       -0.4644
      4 O           4.8000   -2.0346    0.0000 O.2     1  UNL1       -0.2448
      5 C           3.0000    0.9862    0.0000 C.3     1  UNL1        0.1054
      6 C           3.0000   -0.0554    0.0000 C.3     1  UNL1       -0.0093
      7 C           3.9061   -0.5693    0.0000 C.3     1  UNL1       -0.0197
      8 C           4.8000   -0.0346    0.0000 C.ar    1  UNL1        0.0126
      9 C           4.8000    0.9654    0.0000 C.ar    1  UNL1        0.1331
     10 C           2.0000    0.9900    0.0000 C.3     1  UNL1       -0.0252
     11 C           2.5033    1.8541    0.0000 C.3     1  UNL1       -0.0252
     12 C           5.6660    1.4654    0.0000 C.ar    1  UNL1        0.0276
     13 C           5.6660   -0.5346    0.0000 C.ar    1  UNL1        0.1075
     14 C           6.5320    0.9654    0.0000 C.ar    1  UNL1        0.0279
     15 C           6.5320   -0.0346    0.0000 C.ar    1  UNL1        0.1390
     16 C           5.6500    2.5069    0.0000 C.ar    1  UNL1       -0.0504
     17 C           7.4420    1.4722    0.0000 C.ar    1  UNL1       -0.0504
     18 C           5.6660   -1.5346    0.0000 C.2     1  UNL1        0.3429
     19 C           6.5480    3.0346    0.0000 C.ar    1  UNL1       -0.0611
     20 C           7.4501    2.5138    0.0000 C.ar    1  UNL1       -0.0611
     21 C           6.5320   -3.0346    0.0000 C.3     1  UNL1        0.0820
     22 H           2.3891    0.0506    0.0000 H       1  UNL1        0.0307
     23 H           2.7909   -0.6391    0.0000 H       1  UNL1        0.0307
     24 H           3.5124   -1.0483    0.0000 H       1  UNL1        0.0316
     25 H           4.3107   -1.0391    0.0000 H       1  UNL1        0.0316
     26 H           2.0024    1.6100    0.0000 H       1  UNL1        0.0268
     27 H           3.0415    2.1621    0.0000 H       1  UNL1        0.0268
     28 H           2.1954    2.3923    0.0000 H       1  UNL1        0.0268
     29 H           1.9652    1.5462    0.0000 H       1  UNL1        0.0268
     30 H           1.3800    0.9924    0.0000 H       1  UNL1        0.0268
     31 H           1.9976    0.3700    0.0000 H       1  UNL1        0.0268
     32 H           5.1095    2.8106    0.0000 H       1  UNL1        0.0625
     33 H           7.9754    1.1560    0.0000 H       1  UNL1        0.0625
     34 H           6.5456    3.6546    0.0000 H       1  UNL1        0.0618
     35 H           7.9882    2.8217    0.0000 H       1  UNL1        0.0618
     36 H           7.9350   -0.2246    0.0000 H       1  UNL1        0.2922
     37 H           5.9120   -3.0346    0.0000 H       1  UNL1        0.0661
     38 H           6.5320   -3.6546    0.0000 H       1  UNL1        0.0661
     39 H           7.1520   -3.0346    0.0000 H       1  UNL1        0.0661
@<TRIPOS>BOND
     1     1     5    1
     2     1     9    1
     3     2    15    1
     4     2    36    1
     5     3    18    1
     6     3    21    1
     7     4    18    2
     8     5     6    1
     9     5    10    1
    10     5    11    1
    11     6     7    1
    12     6    22    1
    13     6    23    1
    14     7     8    1
    15     7    24    1
    16     7    25    1
    17     8     9   ar
    18     8    13   ar
    19     9    12   ar
    20    10    26    1
    21    10    30    1
    22    10    31    1
    23    11    27    1
    24    11    28    1
    25    11    29    1
    26    12    14   ar
    27    12    16   ar
    28    13    15   ar
    29    13    18    1
    30    14    15   ar
    31    14    17   ar
    32    16    19   ar
    33    16    32    1
    34    17    20   ar
    35    17    33    1
    36    19    20   ar
    37    19    34    1
    38    20    35    1
    39    21    37    1
    40    21    38    1
    41    21    39    1
