@<TRIPOS>MOLECULE
IMPHY001373
 17 15 0 0 0
SMALL
GASTEIGER

@<TRIPOS>ATOM
      1 K           2.0000   -1.0000    0.0000 K       1  UNL1        0.0000
      2 K           8.9282   -1.0000    0.0000 K       2  UNL2        0.0000
      3 O           5.4641   -1.0000    0.0000 O.2     3  UNL3        0.0000
      4 O           5.4641    2.0000    0.0000 O.2     3  UNL3        0.0000
      5 O           2.8660   -0.5000    0.0000 O.co2   3  UNL3       -0.5000
      6 O           8.0622   -0.5000    0.0000 O.co2   3  UNL3       -0.5000
      7 O           3.7320   -2.0000    0.0000 O.co2   3  UNL3       -0.5000
      8 O           7.1962   -2.0000    0.0000 O.co2   3  UNL3       -0.5000
      9 C           4.5981   -0.5000    0.0000 C.ar    3  UNL3        0.0000
     10 C           6.3301   -0.5000    0.0000 C.ar    3  UNL3        0.0000
     11 C           6.3301    0.5000    0.0000 C.ar    3  UNL3        0.0000
     12 C           4.5981    0.5000    0.0000 C.ar    3  UNL3        0.0000
     13 C           5.4641    1.0000    0.0000 C.ar    3  UNL3        0.0000
     14 C           3.7320   -1.0000    0.0000 C.2     3  UNL3        0.0000
     15 C           7.1962   -1.0000    0.0000 C.2     3  UNL3        0.0000
     16 H           4.0611    0.8100    0.0000 H       3  UNL3        0.0000
     17 H           6.8671    0.8100    0.0000 H       3  UNL3        0.0000
@<TRIPOS>UNITY_ATOM_ATTR
1 1
charge 1
2 1
charge 1
5 1
charge -1
6 1
charge -1
@<TRIPOS>BOND
     1     3     9   ar
     2     3    10   ar
     3     4    13    2
     4     5    14   ar
     5     6    15   ar
     6     7    14   ar
     7     8    15   ar
     8     9    12   ar
     9     9    14    1
    10    10    11   ar
    11    10    15    1
    12    11    13   ar
    13    11    17    1
    14    12    13   ar
    15    12    16    1
