@<TRIPOS>MOLECULE
IMPHY012251
 13 13 0 0 0
SMALL
GASTEIGER

@<TRIPOS>ATOM
      1 O           3.7601    1.1144    0.0000 O.2     1  UNL1       -0.5036
      2 O           2.0000   -0.1643    0.0000 O.2     1  UNL1       -0.2888
      3 C           3.2601   -1.4244    0.0000 C.3     1  UNL1        0.0171
      4 C           4.2601   -1.4244    0.0000 C.3     1  UNL1       -0.0238
      5 C           2.9511   -0.4734    0.0000 C.2     1  UNL1        0.1970
      6 C           4.5691   -0.4734    0.0000 C.2     1  UNL1       -0.0386
      7 C           3.7601    0.1144    0.0000 C.2     1  UNL1        0.1552
      8 H           2.6536   -1.5533    0.0000 H       1  UNL1        0.0349
      9 H           3.3249   -2.0410    0.0000 H       1  UNL1        0.0349
     10 H           4.1953   -2.0410    0.0000 H       1  UNL1        0.0313
     11 H           4.8665   -1.5533    0.0000 H       1  UNL1        0.0313
     12 H           5.1588   -0.2818    0.0000 H       1  UNL1        0.0609
     13 H           4.2970    1.4244    0.0000 H       1  UNL1        0.2923
@<TRIPOS>BOND
     1     1     7    1
     2     1    13    1
     3     2     5    2
     4     3     4    1
     5     3     5    1
     6     3     8    1
     7     3     9    1
     8     4     6    1
     9     4    10    1
    10     4    11    1
    11     5     7    1
    12     6     7    2
    13     6    12    1
