@<TRIPOS>MOLECULE
IMPHY005294
 176 186 0 0 0
SMALL
GASTEIGER

@<TRIPOS>ATOM
      1 O          14.3523    7.7079    0.0000 O.3     1  UNL1       -0.3423
      2 O          15.5402    5.6315    0.0000 O.3     1  UNL1       -0.3889
      3 O          12.5799    8.6027    0.0000 O.3     1  UNL1       -0.3480
      4 O          12.9292   -0.5362    0.0000 O.3     1  UNL1       -0.3454
      5 O          11.1972   -0.5362    0.0000 O.3     1  UNL1       -0.3405
      6 O          12.9292   -2.5362    0.0000 O.3     1  UNL1       -0.3841
      7 O          11.1972   -3.5362    0.0000 O.3     1  UNL1       -0.3864
      8 O           9.4651   -2.5362    0.0000 O.3     1  UNL1       -0.3401
      9 O           9.4651    0.4638    0.0000 O.3     1  UNL1       -0.3924
     10 O           8.5991   -1.0361    0.0000 O.3     1  UNL1       -0.3405
     11 O           7.7331   -3.5362    0.0000 O.3     1  UNL1       -0.3377
     12 O           6.0010   -2.5362    0.0000 O.3     1  UNL1       -0.3401
     13 O           6.0010   -0.5362    0.0000 O.3     1  UNL1       -0.3865
     14 O           6.4062   -4.6494    0.0000 O.3     1  UNL1       -0.3405
     15 O           6.8671    0.9638    0.0000 O.3     1  UNL1       -0.3924
     16 O           5.1350   -1.0361    0.0000 O.3     1  UNL1       -0.3461
     17 O           9.0187   -5.0682    0.0000 O.3     1  UNL1       -0.3841
     18 O           8.3347   -6.9476    0.0000 O.3     1  UNL1       -0.3401
     19 O           4.2690   -3.5362    0.0000 O.3     1  UNL1       -0.3841
     20 O           6.3650   -7.2949    0.0000 O.3     1  UNL1       -0.3865
     21 O           2.5369   -2.5362    0.0000 O.3     1  UNL1       -0.3864
     22 O           2.5369   -0.5362    0.0000 O.3     1  UNL1       -0.3869
     23 O           4.7374   -6.7025    0.0000 O.3     1  UNL1       -0.3924
     24 O           7.0078   -8.0610    0.0000 O.3     1  UNL1       -0.3405
     25 O           9.6203   -8.4797    0.0000 O.3     1  UNL1       -0.3841
     26 O           8.9362  -10.3591    0.0000 O.3     1  UNL1       -0.3864
     27 O           6.9665  -10.7064    0.0000 O.3     1  UNL1       -0.3865
     28 O           5.3389  -10.1140    0.0000 O.3     1  UNL1       -0.3924
     29 C          12.9585    5.6607    0.0000 C.3     1  UNL1       -0.0209
     30 C          13.8264    5.1641    0.0000 C.3     1  UNL1       -0.0037
     31 C          13.1640    6.6333    0.0000 C.3     1  UNL1        0.0010
     32 C          13.8303    4.1641    0.0000 C.3     1  UNL1       -0.0319
     33 C          12.9662    3.6607    0.0000 C.3     1  UNL1       -0.0322
     34 C          14.1523    6.7402    0.0000 C.3     1  UNL1        0.0918
     35 C          14.5609    5.8340    0.0000 C.3     1  UNL1        0.0853
     36 C          12.9542    2.6192    0.0000 C.3     1  UNL1       -0.0260
     37 C          12.0944    5.1574    0.0000 C.3     1  UNL1       -0.0467
     38 C          12.0983    4.1574    0.0000 C.3     1  UNL1       -0.0489
     39 C          12.7617    7.5359    0.0000 C.3     1  UNL1        0.0161
     40 C          13.8542    2.0949    0.0000 C.3     1  UNL1       -0.0330
     41 C          14.7422    3.6607    0.0000 C.3     1  UNL1       -0.0493
     42 C          13.4946    8.1987    0.0000 C.3     1  UNL1        0.1733
     43 C          14.7543    2.6192    0.0000 C.3     1  UNL1       -0.0494
     44 C          12.0906    6.1574    0.0000 C.3     1  UNL1       -0.0589
     45 C          12.0043    2.0949    0.0000 C.3     1  UNL1       -0.0448
     46 C          13.8668    1.0100    0.0000 C.3     1  UNL1       -0.0232
     47 C          12.0901    3.1225    0.0000 C.3     1  UNL1       -0.0590
     48 C          11.9917    1.0100    0.0000 C.3     1  UNL1       -0.0260
     49 C          11.7833    7.7426    0.0000 C.3     1  UNL1       -0.0572
     50 C          14.3019    8.7889    0.0000 C.3     1  UNL1        0.0020
     51 C          12.9292    0.4638    0.0000 C.3     1  UNL1        0.0621
     52 C          14.1944    9.7831    0.0000 C.3     1  UNL1       -0.0435
     53 C          12.4724    9.5969    0.0000 C.3     1  UNL1        0.0535
     54 C          13.2796   10.1871    0.0000 C.3     1  UNL1       -0.0201
     55 C          13.1721   11.1813    0.0000 C.3     1  UNL1       -0.0603
     56 C          12.0632   -1.0361    0.0000 C.3     1  UNL1        0.1882
     57 C          12.0632   -2.0362    0.0000 C.3     1  UNL1        0.1341
     58 C          11.1972   -2.5362    0.0000 C.3     1  UNL1        0.1144
     59 C          10.3312   -1.0361    0.0000 C.3     1  UNL1        0.1134
     60 C          10.3312   -2.0362    0.0000 C.3     1  UNL1        0.1184
     61 C           9.4651   -0.5362    0.0000 C.3     1  UNL1        0.0730
     62 C           8.5991   -2.0362    0.0000 C.3     1  UNL1        0.1888
     63 C           7.7331   -2.5362    0.0000 C.3     1  UNL1        0.1410
     64 C           6.8671   -2.0362    0.0000 C.3     1  UNL1        0.1209
     65 C           7.7331   -0.5362    0.0000 C.3     1  UNL1        0.1130
     66 C           6.8671   -1.0361    0.0000 C.3     1  UNL1        0.1123
     67 C           7.7331    0.4638    0.0000 C.3     1  UNL1        0.0730
     68 C           7.3910   -4.4758    0.0000 C.3     1  UNL1        0.1886
     69 C           5.1350   -2.0362    0.0000 C.3     1  UNL1        0.1880
     70 C           8.0339   -5.2419    0.0000 C.3     1  UNL1        0.1345
     71 C           7.6918   -6.1816    0.0000 C.3     1  UNL1        0.1206
     72 C           4.2690   -2.5362    0.0000 C.3     1  UNL1        0.1341
     73 C           6.0642   -5.5891    0.0000 C.3     1  UNL1        0.1130
     74 C           6.7070   -6.3552    0.0000 C.3     1  UNL1        0.1123
     75 C           3.4030   -2.0362    0.0000 C.3     1  UNL1        0.1137
     76 C           4.2690   -0.5362    0.0000 C.3     1  UNL1        0.0792
     77 C           3.4030   -1.0361    0.0000 C.3     1  UNL1        0.1069
     78 C           5.0794   -5.7628    0.0000 C.3     1  UNL1        0.0730
     79 C           7.9926   -7.8873    0.0000 C.3     1  UNL1        0.1884
     80 C           8.6354   -8.6534    0.0000 C.3     1  UNL1        0.1341
     81 C           8.2934   -9.5930    0.0000 C.3     1  UNL1        0.1141
     82 C           6.6658   -9.0007    0.0000 C.3     1  UNL1        0.1130
     83 C           7.3086   -9.7667    0.0000 C.3     1  UNL1        0.1119
     84 C           5.6809   -9.1743    0.0000 C.3     1  UNL1        0.0730
     85 H          14.3941    4.9148    0.0000 H       1  UNL1        0.0335
     86 H          12.5474    6.5680    0.0000 H       1  UNL1        0.0336
     87 H          14.3636    4.4803    0.0000 H       1  UNL1        0.0307
     88 H          13.5019    3.3487    0.0000 H       1  UNL1        0.0309
     89 H          14.7685    6.8082    0.0000 H       1  UNL1        0.0626
     90 H          14.7250    5.2361    0.0000 H       1  UNL1        0.0622
     91 H          11.8801    5.7392    0.0000 H       1  UNL1        0.0271
     92 H          11.4842    5.0474    0.0000 H       1  UNL1        0.0271
     93 H          11.4873    4.2627    0.0000 H       1  UNL1        0.0268
     94 H          11.8885    3.5740    0.0000 H       1  UNL1        0.0268
     95 H          12.3719    7.0538    0.0000 H       1  UNL1        0.0354
     96 H          14.3935    1.7890    0.0000 H       1  UNL1        0.0307
     97 H          15.3543    3.5617    0.0000 H       1  UNL1        0.0268
     98 H          14.9445    4.2468    0.0000 H       1  UNL1        0.0268
     99 H          14.9701    2.0379    0.0000 H       1  UNL1        0.0268
    100 H          15.3639    2.7323    0.0000 H       1  UNL1        0.0268
    101 H          12.3985    6.6955    0.0000 H       1  UNL1        0.0235
    102 H          11.5524    6.4653    0.0000 H       1  UNL1        0.0235
    103 H          11.7826    5.6192    0.0000 H       1  UNL1        0.0235
    104 H          11.8020    2.6810    0.0000 H       1  UNL1        0.0271
    105 H          11.3922    1.9959    0.0000 H       1  UNL1        0.0271
    106 H          14.0826    0.4287    0.0000 H       1  UNL1        0.0293
    107 H          14.4764    1.1231    0.0000 H       1  UNL1        0.0293
    108 H          12.4021    3.6582    0.0000 H       1  UNL1        0.0235
    109 H          11.5543    3.4346    0.0000 H       1  UNL1        0.0235
    110 H          11.7780    2.5868    0.0000 H       1  UNL1        0.0235
    111 H          11.3821    1.1231    0.0000 H       1  UNL1        0.0290
    112 H          11.7759    0.4287    0.0000 H       1  UNL1        0.0290
    113 H          11.9114    8.3492    0.0000 H       1  UNL1        0.0234
    114 H          11.1766    7.8708    0.0000 H       1  UNL1        0.0234
    115 H          11.6551    7.1360    0.0000 H       1  UNL1        0.0234
    116 H          14.5753    8.2325    0.0000 H       1  UNL1        0.0317
    117 H          14.8974    8.9616    0.0000 H       1  UNL1        0.0317
    118 H          12.3917    0.1549    0.0000 H       1  UNL1        0.0597
    119 H          15.9525    6.0946    0.0000 H       1  UNL1        0.2099
    120 H          14.8130    9.7417    0.0000 H       1  UNL1        0.0270
    121 H          14.3426   10.3852    0.0000 H       1  UNL1        0.0270
    122 H          12.1989   10.1534    0.0000 H       1  UNL1        0.0563
    123 H          11.8769    9.4243    0.0000 H       1  UNL1        0.0563
    124 H          13.7801   10.5531    0.0000 H       1  UNL1        0.0320
    125 H          13.7885   11.2480    0.0000 H       1  UNL1        0.0233
    126 H          13.1055   11.7978    0.0000 H       1  UNL1        0.0233
    127 H          12.5557   11.1147    0.0000 H       1  UNL1        0.0233
    128 H          12.6002   -1.3462    0.0000 H       1  UNL1        0.0937
    129 H          12.0632   -2.6561    0.0000 H       1  UNL1        0.0671
    130 H          10.6603   -2.8462    0.0000 H       1  UNL1        0.0648
    131 H          10.3312   -0.4162    0.0000 H       1  UNL1        0.0647
    132 H           9.7942   -1.7262    0.0000 H       1  UNL1        0.0651
    133 H          13.4662   -2.2262    0.0000 H       1  UNL1        0.2101
    134 H           8.8546   -0.4285    0.0000 H       1  UNL1        0.0584
    135 H           9.2531   -1.1188    0.0000 H       1  UNL1        0.0584
    136 H          11.7341   -3.8462    0.0000 H       1  UNL1        0.2100
    137 H           8.5991   -2.6561    0.0000 H       1  UNL1        0.0938
    138 H           8.9282    0.7738    0.0000 H       1  UNL1        0.2095
    139 H           7.1962   -2.8462    0.0000 H       1  UNL1        0.0675
    140 H           6.3301   -1.7262    0.0000 H       1  UNL1        0.0651
    141 H           8.2700   -0.2262    0.0000 H       1  UNL1        0.0647
    142 H           6.8671   -0.4162    0.0000 H       1  UNL1        0.0647
    143 H           8.3437    0.3562    0.0000 H       1  UNL1        0.0584
    144 H           7.9451    1.0465    0.0000 H       1  UNL1        0.0584
    145 H           6.9925   -4.0009    0.0000 H       1  UNL1        0.0938
    146 H           6.0010    0.0838    0.0000 H       1  UNL1        0.2100
    147 H           5.1350   -2.6561    0.0000 H       1  UNL1        0.0937
    148 H           8.4324   -5.7168    0.0000 H       1  UNL1        0.0671
    149 H           7.4798   -6.7642    0.0000 H       1  UNL1        0.0651
    150 H           6.8671    1.5838    0.0000 H       1  UNL1        0.2095
    151 H           3.7320   -2.8462    0.0000 H       1  UNL1        0.0671
    152 H           5.6656   -5.1142    0.0000 H       1  UNL1        0.0647
    153 H           6.0964   -6.4629    0.0000 H       1  UNL1        0.0647
    154 H           2.8660   -1.7262    0.0000 H       1  UNL1        0.0647
    155 H           9.2307   -4.4856    0.0000 H       1  UNL1        0.2101
    156 H           4.6675   -0.0612    0.0000 H       1  UNL1        0.0587
    157 H           3.8705   -0.0612    0.0000 H       1  UNL1        0.0587
    158 H           3.4030   -0.4162    0.0000 H       1  UNL1        0.0643
    159 H           5.0794   -5.1428    0.0000 H       1  UNL1        0.0584
    160 H           4.4688   -5.6551    0.0000 H       1  UNL1        0.0584
    161 H           3.7320   -3.8462    0.0000 H       1  UNL1        0.2101
    162 H           5.7544   -7.4026    0.0000 H       1  UNL1        0.2100
    163 H           7.5941   -7.4124    0.0000 H       1  UNL1        0.0938
    164 H           2.0000   -2.2262    0.0000 H       1  UNL1        0.2100
    165 H           9.0340   -9.1283    0.0000 H       1  UNL1        0.0671
    166 H           2.5369    0.0838    0.0000 H       1  UNL1        0.2100
    167 H           4.1268   -6.8101    0.0000 H       1  UNL1        0.2095
    168 H           8.0814  -10.1757    0.0000 H       1  UNL1        0.0648
    169 H           6.2672   -8.5257    0.0000 H       1  UNL1        0.0647
    170 H           6.6980   -9.8744    0.0000 H       1  UNL1        0.0647
    171 H          10.0188   -8.9546    0.0000 H       1  UNL1        0.2101
    172 H           5.6809   -8.5543    0.0000 H       1  UNL1        0.0584
    173 H           5.0704   -9.0666    0.0000 H       1  UNL1        0.0584
    174 H           8.7241  -10.9417    0.0000 H       1  UNL1        0.2100
    175 H           7.3651  -11.1813    0.0000 H       1  UNL1        0.2100
    176 H           4.7283  -10.2216    0.0000 H       1  UNL1        0.2095
@<TRIPOS>BOND
     1     1    34    1
     2     1    42    1
     3     2    35    1
     4     2   119    1
     5     3    42    1
     6     3    53    1
     7     4    51    1
     8     4    56    1
     9     5    56    1
    10     5    59    1
    11     6    57    1
    12     6   133    1
    13     7    58    1
    14     7   136    1
    15     8    60    1
    16     8    62    1
    17     9    61    1
    18     9   138    1
    19    10    62    1
    20    10    65    1
    21    11    63    1
    22    11    68    1
    23    12    64    1
    24    12    69    1
    25    13    66    1
    26    13   146    1
    27    14    68    1
    28    14    73    1
    29    15    67    1
    30    15   150    1
    31    16    69    1
    32    16    76    1
    33    17    70    1
    34    17   155    1
    35    18    71    1
    36    18    79    1
    37    19    72    1
    38    19   161    1
    39    20    74    1
    40    20   162    1
    41    21    75    1
    42    21   164    1
    43    22    77    1
    44    22   166    1
    45    23    78    1
    46    23   167    1
    47    24    79    1
    48    24    82    1
    49    25    80    1
    50    25   171    1
    51    26    81    1
    52    26   174    1
    53    27    83    1
    54    27   175    1
    55    28    84    1
    56    28   176    1
    57    29    30    1
    58    29    31    1
    59    29    37    1
    60    29    44    1
    61    30    32    1
    62    30    35    1
    63    30    85    1
    64    31    34    1
    65    31    39    1
    66    31    86    1
    67    32    33    1
    68    32    41    1
    69    32    87    1
    70    33    36    1
    71    33    38    1
    72    33    88    1
    73    34    35    1
    74    34    89    1
    75    35    90    1
    76    36    40    1
    77    36    45    1
    78    36    47    1
    79    37    38    1
    80    37    91    1
    81    37    92    1
    82    38    93    1
    83    38    94    1
    84    39    42    1
    85    39    49    1
    86    39    95    1
    87    40    43    1
    88    40    46    1
    89    40    96    1
    90    41    43    1
    91    41    97    1
    92    41    98    1
    93    42    50    1
    94    43    99    1
    95    43   100    1
    96    44   101    1
    97    44   102    1
    98    44   103    1
    99    45    48    1
   100    45   104    1
   101    45   105    1
   102    46    51    1
   103    46   106    1
   104    46   107    1
   105    47   108    1
   106    47   109    1
   107    47   110    1
   108    48    51    1
   109    48   111    1
   110    48   112    1
   111    49   113    1
   112    49   114    1
   113    49   115    1
   114    50    52    1
   115    50   116    1
   116    50   117    1
   117    51   118    1
   118    52    54    1
   119    52   120    1
   120    52   121    1
   121    53    54    1
   122    53   122    1
   123    53   123    1
   124    54    55    1
   125    54   124    1
   126    55   125    1
   127    55   126    1
   128    55   127    1
   129    56    57    1
   130    56   128    1
   131    57    58    1
   132    57   129    1
   133    58    60    1
   134    58   130    1
   135    59    60    1
   136    59    61    1
   137    59   131    1
   138    60   132    1
   139    61   134    1
   140    61   135    1
   141    62    63    1
   142    62   137    1
   143    63    64    1
   144    63   139    1
   145    64    66    1
   146    64   140    1
   147    65    66    1
   148    65    67    1
   149    65   141    1
   150    66   142    1
   151    67   143    1
   152    67   144    1
   153    68    70    1
   154    68   145    1
   155    69    72    1
   156    69   147    1
   157    70    71    1
   158    70   148    1
   159    71    74    1
   160    71   149    1
   161    72    75    1
   162    72   151    1
   163    73    74    1
   164    73    78    1
   165    73   152    1
   166    74   153    1
   167    75    77    1
   168    75   154    1
   169    76    77    1
   170    76   156    1
   171    76   157    1
   172    77   158    1
   173    78   159    1
   174    78   160    1
   175    79    80    1
   176    79   163    1
   177    80    81    1
   178    80   165    1
   179    81    83    1
   180    81   168    1
   181    82    83    1
   182    82    84    1
   183    82   169    1
   184    83   170    1
   185    84   172    1
   186    84   173    1
