@<TRIPOS>MOLECULE
IMPHY013511
 217 228 0 0 0
SMALL
GASTEIGER

@<TRIPOS>ATOM
      1 O          16.5048    5.6840    0.0000 O.3     1  UNL1       -0.3915
      2 O          20.1458    4.6390    0.0000 O.3     1  UNL1       -0.3422
      3 O          20.1136    2.5476    0.0000 O.3     1  UNL1       -0.3892
      4 O          18.3453    6.4308    0.0000 O.3     1  UNL1       -0.3944
      5 O          11.1972    1.6214    0.0000 O.3     1  UNL1       -0.4318
      6 O          12.0632    3.1214    0.0000 O.2     1  UNL1       -0.2501
      7 O          20.9944    3.1290    0.0000 O.3     1  UNL1       -0.3405
      8 O          21.8893    5.6189    0.0000 O.3     1  UNL1       -0.3378
      9 O          10.3312    3.1214    0.0000 O.3     1  UNL1       -0.3368
     10 O          23.6097    4.5989    0.0000 O.3     1  UNL1       -0.3864
     11 O          23.5866    2.5990    0.0000 O.3     1  UNL1       -0.3865
     12 O           9.4651    0.6214    0.0000 O.3     1  UNL1       -0.3366
     13 O          23.6698    5.6916    0.0000 O.3     1  UNL1       -0.3457
     14 O           7.7331    1.6214    0.0000 O.3     1  UNL1       -0.3864
     15 O          22.7032    1.1092    0.0000 O.3     1  UNL1       -0.3924
     16 O           7.7331    3.6214    0.0000 O.3     1  UNL1       -0.3869
     17 O          22.1417    7.7797    0.0000 O.3     1  UNL1       -0.3837
     18 O           7.7331    0.6214    0.0000 O.3     1  UNL1       -0.3431
     19 O          23.6610    8.2791    0.0000 O.3     1  UNL1       -0.3812
     20 O           9.4651   -1.3786    0.0000 O.3     1  UNL1       -0.3841
     21 O          25.5895    7.2786    0.0000 O.3     1  UNL1       -0.3920
     22 O           7.7331   -2.3786    0.0000 O.3     1  UNL1       -0.3400
     23 O           6.0010   -1.3786    0.0000 O.3     1  UNL1       -0.3866
     24 O           6.0010   -2.3786    0.0000 O.3     1  UNL1       -0.3405
     25 O           7.7331   -4.3786    0.0000 O.3     1  UNL1       -0.3378
     26 O           6.0010   -5.3786    0.0000 O.3     1  UNL1       -0.3864
     27 O           4.2690   -4.3786    0.0000 O.3     1  UNL1       -0.3401
     28 O           8.5991   -2.8786    0.0000 O.3     1  UNL1       -0.3461
     29 O           4.2690   -1.3786    0.0000 O.3     1  UNL1       -0.3924
     30 O           5.1350   -5.8786    0.0000 O.3     1  UNL1       -0.3431
     31 O           9.4651   -5.3786    0.0000 O.3     1  UNL1       -0.3841
     32 O          11.1972   -4.3786    0.0000 O.3     1  UNL1       -0.3864
     33 O           2.5369   -5.3786    0.0000 O.3     1  UNL1       -0.3841
     34 O          11.1972   -2.3786    0.0000 O.3     1  UNL1       -0.3869
     35 O           2.5369   -7.3786    0.0000 O.3     1  UNL1       -0.3864
     36 O           4.2690   -8.3786    0.0000 O.3     1  UNL1       -0.3866
     37 C          15.6069    3.1216    0.0000 C.3     1  UNL1       -0.0170
     38 C          17.3829    3.1147    0.0000 C.3     1  UNL1       -0.0202
     39 C          16.4691    2.6149    0.0000 C.3     1  UNL1       -0.0255
     40 C          14.7371    2.6283    0.0000 C.3     1  UNL1       -0.0050
     41 C          17.3990    4.1562    0.0000 C.3     1  UNL1        0.0007
     42 C          15.5989    4.1632    0.0000 C.3     1  UNL1       -0.0201
     43 C          16.5010    4.6840    0.0000 C.3     1  UNL1        0.0597
     44 C          18.3386    4.6987    0.0000 C.3     1  UNL1        0.0254
     45 C          14.7294    1.6283    0.0000 C.2     1  UNL1       -0.0629
     46 C          18.3054    2.5435    0.0000 C.3     1  UNL1       -0.0183
     47 C          16.4614    1.6149    0.0000 C.3     1  UNL1       -0.0306
     48 C          13.8313    1.1005    0.0000 C.3     1  UNL1       -0.0031
     49 C          13.8473    3.1698    0.0000 C.3     1  UNL1       -0.0424
     50 C          12.9292    1.6214    0.0000 C.3     1  UNL1        0.0744
     51 C          19.2741    4.1490    0.0000 C.3     1  UNL1        0.0954
     52 C          14.9701    3.8926    0.0000 C.3     1  UNL1       -0.0584
     53 C          19.2573    3.0641    0.0000 C.3     1  UNL1        0.0825
     54 C          12.9373    2.6630    0.0000 C.3     1  UNL1       -0.0359
     55 C          17.3675    2.1148    0.0000 C.3     1  UNL1       -0.0588
     56 C          15.5915    1.1216    0.0000 C.2     1  UNL1       -0.0836
     57 C          14.4023    3.5706    0.0000 C.3     1  UNL1       -0.0553
     58 C          13.8480    0.0157    0.0000 C.3     1  UNL1       -0.0403
     59 C          11.9814    1.0934    0.0000 C.3     1  UNL1       -0.0362
     60 C          18.8420    5.5628    0.0000 C.3     1  UNL1        0.0524
     61 C          12.9126   -0.5340    0.0000 C.3     1  UNL1       -0.0343
     62 C          17.8420    5.5667    0.0000 C.3     1  UNL1       -0.0547
     63 C          11.9730    0.0084    0.0000 C.3     1  UNL1       -0.0468
     64 C          12.0632    2.1214    0.0000 C.2     1  UNL1        0.3161
     65 C          13.4160   -1.3981    0.0000 C.3     1  UNL1       -0.0598
     66 C          12.4160   -1.4020    0.0000 C.3     1  UNL1       -0.0598
     67 C          21.0060    4.1290    0.0000 C.3     1  UNL1        0.1887
     68 C          21.8777    4.6189    0.0000 C.3     1  UNL1        0.1406
     69 C          10.3312    2.1214    0.0000 C.3     1  UNL1        0.2338
     70 C          22.7379    4.1090    0.0000 C.3     1  UNL1        0.1144
     71 C          21.8546    2.6191    0.0000 C.3     1  UNL1        0.1130
     72 C          22.7264    3.1090    0.0000 C.3     1  UNL1        0.1119
     73 C           9.4651    1.6214    0.0000 C.3     1  UNL1        0.1520
     74 C           8.5991    2.1214    0.0000 C.3     1  UNL1        0.1152
     75 C          21.8431    1.6191    0.0000 C.3     1  UNL1        0.0730
     76 C          22.7611    6.1088    0.0000 C.3     1  UNL1        0.1885
     77 C           9.4651    3.6214    0.0000 C.3     1  UNL1        0.0802
     78 C           8.5991    3.1214    0.0000 C.3     1  UNL1        0.1070
     79 C          22.8771    7.1021    0.0000 C.3     1  UNL1        0.1387
     80 C          23.8576    7.2986    0.0000 C.3     1  UNL1        0.1425
     81 C           8.5991    0.1214    0.0000 C.3     1  UNL1        0.1885
     82 C          24.3475    6.4269    0.0000 C.3     1  UNL1        0.0843
     83 C           8.5991   -0.8786    0.0000 C.3     1  UNL1        0.1345
     84 C          24.7293    7.7886    0.0000 C.3     1  UNL1        0.0778
     85 C           7.7331   -1.3786    0.0000 C.3     1  UNL1        0.1205
     86 C           6.8671    0.1214    0.0000 C.3     1  UNL1        0.0873
     87 C           6.8671   -0.8786    0.0000 C.3     1  UNL1        0.1098
     88 C           6.0010    0.6214    0.0000 C.3     1  UNL1       -0.0361
     89 C           6.8671   -2.8786    0.0000 C.3     1  UNL1        0.1888
     90 C           6.8671   -3.8786    0.0000 C.3     1  UNL1        0.1406
     91 C           6.0010   -4.3786    0.0000 C.3     1  UNL1        0.1148
     92 C           5.1350   -2.8786    0.0000 C.3     1  UNL1        0.1134
     93 C           5.1350   -3.8786    0.0000 C.3     1  UNL1        0.1184
     94 C           4.2690   -2.3786    0.0000 C.3     1  UNL1        0.0730
     95 C           8.5991   -3.8786    0.0000 C.3     1  UNL1        0.1881
     96 C           9.4651   -4.3786    0.0000 C.3     1  UNL1        0.1341
     97 C           4.2690   -5.3786    0.0000 C.3     1  UNL1        0.1883
     98 C          10.3312   -3.8786    0.0000 C.3     1  UNL1        0.1137
     99 C           3.4030   -5.8786    0.0000 C.3     1  UNL1        0.1341
    100 C           9.4651   -2.3786    0.0000 C.3     1  UNL1        0.0792
    101 C          10.3312   -2.8786    0.0000 C.3     1  UNL1        0.1069
    102 C           3.4030   -6.8786    0.0000 C.3     1  UNL1        0.1140
    103 C           5.1350   -6.8786    0.0000 C.3     1  UNL1        0.0873
    104 C           4.2690   -7.3786    0.0000 C.3     1  UNL1        0.1095
    105 C           6.0010   -7.3786    0.0000 C.3     1  UNL1       -0.0361
    106 H          17.1985    2.1786    0.0000 H       1  UNL1        0.0315
    107 H          17.4023    5.0062    0.0000 H       1  UNL1        0.0338
    108 H          15.3853    4.7452    0.0000 H       1  UNL1        0.0296
    109 H          14.9889    4.0524    0.0000 H       1  UNL1        0.0296
    110 H          15.9646    4.9950    0.0000 H       1  UNL1        0.0596
    111 H          17.8936    2.0800    0.0000 H       1  UNL1        0.0296
    112 H          18.6916    2.0585    0.0000 H       1  UNL1        0.0296
    113 H          16.6689    1.0307    0.0000 H       1  UNL1        0.0310
    114 H          17.0727    1.7179    0.0000 H       1  UNL1        0.0310
    115 H          14.5723    0.6841    0.0000 H       1  UNL1        0.0357
    116 H          14.2555    3.6365    0.0000 H       1  UNL1        0.0274
    117 H          13.4574    3.6518    0.0000 H       1  UNL1        0.0274
    118 H          19.2800    4.7690    0.0000 H       1  UNL1        0.0629
    119 H          15.4481    4.2874    0.0000 H       1  UNL1        0.0235
    120 H          14.5752    4.3706    0.0000 H       1  UNL1        0.0235
    121 H          14.4921    3.4977    0.0000 H       1  UNL1        0.0235
    122 H          19.7996    3.3648    0.0000 H       1  UNL1        0.0619
    123 H          12.7327    3.2482    0.0000 H       1  UNL1        0.0276
    124 H          12.3256    2.5616    0.0000 H       1  UNL1        0.0276
    125 H          16.7476    2.1244    0.0000 H       1  UNL1        0.0235
    126 H          17.3580    1.4949    0.0000 H       1  UNL1        0.0235
    127 H          17.9875    2.1053    0.0000 H       1  UNL1        0.0235
    128 H          15.5867    0.5017    0.0000 H       1  UNL1        0.0572
    129 H          14.9865    3.7781    0.0000 H       1  UNL1        0.0238
    130 H          14.1947    4.1548    0.0000 H       1  UNL1        0.0238
    131 H          13.8181    3.3630    0.0000 H       1  UNL1        0.0238
    132 H          14.0661   -0.5647    0.0000 H       1  UNL1        0.0276
    133 H          14.4572    0.1312    0.0000 H       1  UNL1        0.0276
    134 H          11.7768    1.6787    0.0000 H       1  UNL1        0.0276
    135 H          11.3697    0.9920    0.0000 H       1  UNL1        0.0276
    136 H          19.3154    5.1625    0.0000 H       1  UNL1        0.0563
    137 H          19.3185    5.9595    0.0000 H       1  UNL1        0.0563
    138 H          18.3801    5.8746    0.0000 H       1  UNL1        0.0237
    139 H          17.5341    6.1048    0.0000 H       1  UNL1        0.0237
    140 H          17.3039    5.2588    0.0000 H       1  UNL1        0.0237
    141 H          11.3630    0.1192    0.0000 H       1  UNL1        0.0271
    142 H          11.7594   -0.5736    0.0000 H       1  UNL1        0.0271
    143 H          15.9691    5.9960    0.0000 H       1  UNL1        0.2098
    144 H          20.1016    1.9277    0.0000 H       1  UNL1        0.2099
    145 H          12.8802   -1.7102    0.0000 H       1  UNL1        0.0235
    146 H          13.7280   -1.9339    0.0000 H       1  UNL1        0.0235
    147 H          13.9517   -1.0861    0.0000 H       1  UNL1        0.0235
    148 H          11.8778   -1.0941    0.0000 H       1  UNL1        0.0235
    149 H          12.1080   -1.9401    0.0000 H       1  UNL1        0.0235
    150 H          12.9541   -1.7099    0.0000 H       1  UNL1        0.0235
    151 H          21.0132    4.7489    0.0000 H       1  UNL1        0.0938
    152 H          18.6574    6.9665    0.0000 H       1  UNL1        0.2094
    153 H          22.4182    4.9227    0.0000 H       1  UNL1        0.0675
    154 H          10.3312    1.5014    0.0000 H       1  UNL1        0.1085
    155 H          23.2712    3.7928    0.0000 H       1  UNL1        0.0648
    156 H          21.3141    2.3153    0.0000 H       1  UNL1        0.0647
    157 H          22.7192    2.4891    0.0000 H       1  UNL1        0.0647
    158 H           8.9282    1.3114    0.0000 H       1  UNL1        0.0687
    159 H           8.0622    2.4314    0.0000 H       1  UNL1        0.0648
    160 H          21.2338    1.7338    0.0000 H       1  UNL1        0.0584
    161 H          21.6243    1.0390    0.0000 H       1  UNL1        0.0584
    162 H          22.7863    5.4893    0.0000 H       1  UNL1        0.0938
    163 H          24.1430    4.2827    0.0000 H       1  UNL1        0.2100
    164 H           9.8637    4.0963    0.0000 H       1  UNL1        0.0588
    165 H           9.0666    4.0963    0.0000 H       1  UNL1        0.0588
    166 H           8.5991    3.7414    0.0000 H       1  UNL1        0.0643
    167 H          24.1270    2.9028    0.0000 H       1  UNL1        0.2100
    168 H          22.2957    6.8866    0.0000 H       1  UNL1        0.0675
    169 H           8.5991    0.7414    0.0000 H       1  UNL1        0.0938
    170 H           7.1962    1.9314    0.0000 H       1  UNL1        0.2100
    171 H          22.6961    0.4892    0.0000 H       1  UNL1        0.2095
    172 H          24.7570    5.9614    0.0000 H       1  UNL1        0.0591
    173 H          24.8533    6.7855    0.0000 H       1  UNL1        0.0591
    174 H           7.7331    4.2414    0.0000 H       1  UNL1        0.2100
    175 H           8.5991   -1.4986    0.0000 H       1  UNL1        0.0671
    176 H          25.1333    8.2589    0.0000 H       1  UNL1        0.0587
    177 H          24.3363    8.2681    0.0000 H       1  UNL1        0.0587
    178 H          22.2776    8.3847    0.0000 H       1  UNL1        0.2101
    179 H           7.1962   -1.6886    0.0000 H       1  UNL1        0.0651
    180 H          24.1265    8.6886    0.0000 H       1  UNL1        0.2105
    181 H           6.8671    0.7414    0.0000 H       1  UNL1        0.0621
    182 H           6.3301   -0.5686    0.0000 H       1  UNL1        0.0646
    183 H          10.0021   -1.0686    0.0000 H       1  UNL1        0.2101
    184 H          26.1300    7.5824    0.0000 H       1  UNL1        0.2095
    185 H           6.3110    1.1583    0.0000 H       1  UNL1        0.0255
    186 H           5.4641    0.9314    0.0000 H       1  UNL1        0.0255
    187 H           5.6910    0.0844    0.0000 H       1  UNL1        0.0255
    188 H           5.4641   -1.0686    0.0000 H       1  UNL1        0.2100
    189 H           7.4040   -3.1886    0.0000 H       1  UNL1        0.0938
    190 H           6.8671   -4.4986    0.0000 H       1  UNL1        0.0675
    191 H           5.4641   -4.6886    0.0000 H       1  UNL1        0.0648
    192 H           5.1350   -2.2586    0.0000 H       1  UNL1        0.0647
    193 H           4.5981   -3.5686    0.0000 H       1  UNL1        0.0651
    194 H           3.6584   -2.2710    0.0000 H       1  UNL1        0.0584
    195 H           4.0569   -2.9612    0.0000 H       1  UNL1        0.0584
    196 H           8.0622   -3.5686    0.0000 H       1  UNL1        0.0937
    197 H           6.5380   -5.6886    0.0000 H       1  UNL1        0.2100
    198 H          10.0021   -4.6886    0.0000 H       1  UNL1        0.0671
    199 H           3.7320   -5.0686    0.0000 H       1  UNL1        0.0938
    200 H           3.7320   -1.0686    0.0000 H       1  UNL1        0.2095
    201 H          10.8681   -3.5686    0.0000 H       1  UNL1        0.0647
    202 H           3.4030   -5.2586    0.0000 H       1  UNL1        0.0671
    203 H           9.8637   -1.9037    0.0000 H       1  UNL1        0.0587
    204 H           9.0666   -1.9037    0.0000 H       1  UNL1        0.0587
    205 H          10.3312   -2.2586    0.0000 H       1  UNL1        0.0643
    206 H           3.4030   -7.4986    0.0000 H       1  UNL1        0.0648
    207 H           8.9282   -5.6886    0.0000 H       1  UNL1        0.2101
    208 H           5.6720   -6.5686    0.0000 H       1  UNL1        0.0621
    209 H           4.8059   -7.6886    0.0000 H       1  UNL1        0.0646
    210 H          11.7341   -4.0686    0.0000 H       1  UNL1        0.2100
    211 H           2.0000   -5.6886    0.0000 H       1  UNL1        0.2101
    212 H          11.1972   -1.7586    0.0000 H       1  UNL1        0.2100
    213 H           5.6910   -7.9156    0.0000 H       1  UNL1        0.0255
    214 H           6.5380   -7.6886    0.0000 H       1  UNL1        0.0255
    215 H           6.3110   -6.8417    0.0000 H       1  UNL1        0.0255
    216 H           2.5369   -7.9986    0.0000 H       1  UNL1        0.2100
    217 H           4.8059   -8.6886    0.0000 H       1  UNL1        0.2100
@<TRIPOS>BOND
     1    43     1    1
     2     1   143    1
     3    51     2    1
     4    67     2    1
     5    53     3    1
     6     3   144    1
     7     4    60    1
     8     4   152    1
     9     5    64    1
    10    69     5    1
    11     6    64    2
    12     7    67    1
    13     7    71    1
    14    68     8    1
    15    76     8    1
    16     9    69    1
    17     9    77    1
    18    70    10    1
    19    10   163    1
    20    72    11    1
    21    11   167    1
    22    73    12    1
    23    81    12    1
    24    13    76    1
    25    13    82    1
    26    74    14    1
    27    14   170    1
    28    15    75    1
    29    15   171    1
    30    78    16    1
    31    16   174    1
    32    79    17    1
    33    17   178    1
    34    18    81    1
    35    18    86    1
    36    80    19    1
    37    19   180    1
    38    83    20    1
    39    20   183    1
    40    21    84    1
    41    21   184    1
    42    85    22    1
    43    89    22    1
    44    87    23    1
    45    23   188    1
    46    24    89    1
    47    24    92    1
    48    90    25    1
    49    95    25    1
    50    91    26    1
    51    26   197    1
    52    93    27    1
    53    97    27    1
    54    28    95    1
    55    28   100    1
    56    29    94    1
    57    29   200    1
    58    30    97    1
    59    30   103    1
    60    96    31    1
    61    31   207    1
    62    98    32    1
    63    32   210    1
    64    99    33    1
    65    33   211    1
    66   101    34    1
    67    34   212    1
    68   102    35    1
    69    35   216    1
    70   104    36    1
    71    36   217    1
    72    37    39    1
    73    37    40    1
    74    37    42    1
    75    37    52    1
    76    38    39    1
    77    38    41    1
    78    38    46    1
    79    38    55    1
    80    39    47    1
    81    39   106    1
    82    40    45    1
    83    40    49    1
    84    40    57    1
    85    41    43    1
    86    41    44    1
    87    41   107    1
    88    42    43    1
    89    42   108    1
    90    42   109    1
    91    43   110    1
    92    44    51    1
    93    44    60    1
    94    44    62    1
    95    45    48    1
    96    45    56    2
    97    46    53    1
    98    46   111    1
    99    46   112    1
   100    47    56    1
   101    47   113    1
   102    47   114    1
   103    48    50    1
   104    48    58    1
   105    48   115    1
   106    49    54    1
   107    49   116    1
   108    49   117    1
   109    50    54    1
   110    50    59    1
   111    50    64    1
   112    51    53    1
   113    51   118    1
   114    52   119    1
   115    52   120    1
   116    52   121    1
   117    53   122    1
   118    54   123    1
   119    54   124    1
   120    55   125    1
   121    55   126    1
   122    55   127    1
   123    56   128    1
   124    57   129    1
   125    57   130    1
   126    57   131    1
   127    58    61    1
   128    58   132    1
   129    58   133    1
   130    59    63    1
   131    59   134    1
   132    59   135    1
   133    60   136    1
   134    60   137    1
   135    61    63    1
   136    61    65    1
   137    61    66    1
   138    62   138    1
   139    62   139    1
   140    62   140    1
   141    63   141    1
   142    63   142    1
   143    65   145    1
   144    65   146    1
   145    65   147    1
   146    66   148    1
   147    66   149    1
   148    66   150    1
   149    67    68    1
   150    67   151    1
   151    68    70    1
   152    68   153    1
   153    69    73    1
   154    69   154    1
   155    70    72    1
   156    70   155    1
   157    71    72    1
   158    71    75    1
   159    71   156    1
   160    72   157    1
   161    73    74    1
   162    73   158    1
   163    74    78    1
   164    74   159    1
   165    75   160    1
   166    75   161    1
   167    76    79    1
   168    76   162    1
   169    77    78    1
   170    77   164    1
   171    77   165    1
   172    78   166    1
   173    79    80    1
   174    79   168    1
   175    80    82    1
   176    80    84    1
   177    81    83    1
   178    81   169    1
   179    82   172    1
   180    82   173    1
   181    83    85    1
   182    83   175    1
   183    84   176    1
   184    84   177    1
   185    85    87    1
   186    85   179    1
   187    86    87    1
   188    86    88    1
   189    86   181    1
   190    87   182    1
   191    88   185    1
   192    88   186    1
   193    88   187    1
   194    89    90    1
   195    89   189    1
   196    90    91    1
   197    90   190    1
   198    91    93    1
   199    91   191    1
   200    92    93    1
   201    92    94    1
   202    92   192    1
   203    93   193    1
   204    94   194    1
   205    94   195    1
   206    95    96    1
   207    95   196    1
   208    96    98    1
   209    96   198    1
   210    97    99    1
   211    97   199    1
   212    98   101    1
   213    98   201    1
   214    99   102    1
   215    99   202    1
   216   100   101    1
   217   100   203    1
   218   100   204    1
   219   101   205    1
   220   102   104    1
   221   102   206    1
   222   103   104    1
   223   103   105    1
   224   103   208    1
   225   104   209    1
   226   105   213    1
   227   105   214    1
   228   105   215    1
