@<TRIPOS>MOLECULE
IMPHY011570
 47 46 0 0 0
SMALL
GASTEIGER

@<TRIPOS>ATOM
      1 O          11.5263    0.7500    0.0000 O.3     1  UNL1       -0.4606
      2 O          10.6603    2.2500    0.0000 O.2     1  UNL1       -0.2512
      3 C           5.4641   -0.7500    0.0000 C.3     1  UNL1       -0.0286
      4 C           8.0622   -1.2500    0.0000 C.3     1  UNL1       -0.0308
      5 C           6.3301   -1.2500    0.0000 C.2     1  UNL1       -0.0762
      6 C           8.9282   -0.7500    0.0000 C.3     1  UNL1       -0.0285
      7 C           7.1962   -0.7500    0.0000 C.2     1  UNL1       -0.0847
      8 C           4.5981   -1.2500    0.0000 C.3     1  UNL1       -0.0308
      9 C           9.7942   -1.2500    0.0000 C.2     1  UNL1       -0.0731
     10 C           6.3301   -2.2500    0.0000 C.3     1  UNL1       -0.0438
     11 C           3.7320   -0.7500    0.0000 C.2     1  UNL1       -0.0850
     12 C           9.7942   -2.2500    0.0000 C.3     1  UNL1       -0.0437
     13 C          10.6603   -0.7500    0.0000 C.2     1  UNL1       -0.0480
     14 C           2.8660   -1.2500    0.0000 C.2     1  UNL1       -0.0796
     15 C          10.6603    0.2500    0.0000 C.3     1  UNL1        0.1109
     16 C           2.0000   -0.7500    0.0000 C.3     1  UNL1       -0.0440
     17 C           2.8660   -2.2500    0.0000 C.3     1  UNL1       -0.0440
     18 C          11.5263    1.7500    0.0000 C.2     1  UNL1        0.3042
     19 C          12.3923    2.2500    0.0000 C.3     1  UNL1        0.0332
     20 H           5.8626   -0.2751    0.0000 H       1  UNL1        0.0313
     21 H           5.0656   -0.2751    0.0000 H       1  UNL1        0.0313
     22 H           7.6636   -1.7250    0.0000 H       1  UNL1        0.0310
     23 H           8.4607   -1.7250    0.0000 H       1  UNL1        0.0310
     24 H           9.3267   -0.2751    0.0000 H       1  UNL1        0.0313
     25 H           8.5297   -0.2751    0.0000 H       1  UNL1        0.0313
     26 H           7.1962   -0.1300    0.0000 H       1  UNL1        0.0572
     27 H           4.1996   -1.7250    0.0000 H       1  UNL1        0.0310
     28 H           4.9966   -1.7250    0.0000 H       1  UNL1        0.0310
     29 H           5.7101   -2.2500    0.0000 H       1  UNL1        0.0274
     30 H           6.3301   -2.8700    0.0000 H       1  UNL1        0.0274
     31 H           6.9501   -2.2500    0.0000 H       1  UNL1        0.0274
     32 H           3.7320   -0.1300    0.0000 H       1  UNL1        0.0572
     33 H          11.1972   -1.0600    0.0000 H       1  UNL1        0.0605
     34 H           9.1742   -2.2500    0.0000 H       1  UNL1        0.0274
     35 H           9.7942   -2.8700    0.0000 H       1  UNL1        0.0274
     36 H          10.4142   -2.2500    0.0000 H       1  UNL1        0.0274
     37 H          10.4482    0.8326    0.0000 H       1  UNL1        0.0743
     38 H          10.0497    0.1423    0.0000 H       1  UNL1        0.0743
     39 H           2.3100   -0.2131    0.0000 H       1  UNL1        0.0274
     40 H           1.4631   -0.4400    0.0000 H       1  UNL1        0.0274
     41 H           1.6900   -1.2869    0.0000 H       1  UNL1        0.0274
     42 H           2.2460   -2.2500    0.0000 H       1  UNL1        0.0274
     43 H           2.8660   -2.8700    0.0000 H       1  UNL1        0.0274
     44 H           3.4860   -2.2500    0.0000 H       1  UNL1        0.0274
     45 H          12.7023    1.7131    0.0000 H       1  UNL1        0.0342
     46 H          12.9292    2.5600    0.0000 H       1  UNL1        0.0342
     47 H          12.0823    2.7869    0.0000 H       1  UNL1        0.0342
@<TRIPOS>BOND
     1     1    15    1
     2     1    18    1
     3     2    18    2
     4     3     5    1
     5     3     8    1
     6     3    20    1
     7     3    21    1
     8     4     6    1
     9     4     7    1
    10     4    22    1
    11     4    23    1
    12     5     7    2
    13     5    10    1
    14     6     9    1
    15     6    24    1
    16     6    25    1
    17     7    26    1
    18     8    11    1
    19     8    27    1
    20     8    28    1
    21     9    12    1
    22     9    13    2
    23    10    29    1
    24    10    30    1
    25    10    31    1
    26    11    14    2
    27    11    32    1
    28    12    34    1
    29    12    35    1
    30    12    36    1
    31    13    15    1
    32    13    33    1
    33    14    16    1
    34    14    17    1
    35    15    37    1
    36    15    38    1
    37    16    39    1
    38    16    40    1
    39    16    41    1
    40    17    42    1
    41    17    43    1
    42    17    44    1
    43    18    19    1
    44    19    45    1
    45    19    46    1
    46    19    47    1
