@<TRIPOS>MOLECULE
IMPHY010869
 74 78 0 0 0
SMALL
GASTEIGER

@<TRIPOS>ATOM
      1 O          10.4270    2.9345    0.0000 O.3     1  UNL1       -0.4562
      2 O           6.8671   -1.1418    0.0000 O.3     1  UNL1       -0.3413
      3 O           9.5152    4.4518    0.0000 O.2     1  UNL1       -0.2505
      4 O           4.2472    1.4507    0.0000 O.3     1  UNL1       -0.4647
      5 O           5.1350   -1.1418    0.0000 O.3     1  UNL1       -0.3405
      6 O           5.1363    2.9372    0.0000 O.2     1  UNL1       -0.2453
      7 O          12.8651    1.0376    0.0000 O.2     1  UNL1       -0.4706
      8 O           6.8671   -3.1418    0.0000 O.3     1  UNL1       -0.3841
      9 O           5.1350   -4.1418    0.0000 O.3     1  UNL1       -0.3864
     10 O           3.4030   -3.1418    0.0000 O.3     1  UNL1       -0.3865
     11 O           2.5369   -1.6418    0.0000 O.3     1  UNL1       -0.3924
     12 C           8.6230    1.9207    0.0000 C.3     1  UNL1       -0.0118
     13 C           7.7551    1.4240    0.0000 C.3     1  UNL1       -0.0225
     14 C           6.8910    1.9273    0.0000 C.3     1  UNL1        0.0029
     15 C           8.6269    2.9207    0.0000 C.3     1  UNL1        0.0623
     16 C           6.8948    2.9273    0.0000 C.3     1  UNL1       -0.0424
     17 C           7.7628    3.4240    0.0000 C.3     1  UNL1       -0.0388
     18 C           7.7671    0.3824    0.0000 C.3     1  UNL1       -0.0187
     19 C           9.5149    1.3826    0.0000 C.3     1  UNL1       -0.0049
     20 C           5.9790    1.4240    0.0000 C.2     1  UNL1        0.0412
     21 C           8.6192    0.9207    0.0000 C.3     1  UNL1       -0.0584
     22 C           6.8671   -0.1418    0.0000 C.3     1  UNL1        0.0810
     23 C           6.0269    2.4307    0.0000 C.3     1  UNL1       -0.0550
     24 C          10.4229    1.8929    0.0000 C.3     1  UNL1        0.1315
     25 C           9.5229    3.4519    0.0000 C.2     1  UNL1        0.3113
     26 C           5.9670    0.3824    0.0000 C.2     1  UNL1       -0.0450
     27 C           5.1208    1.9373    0.0000 C.2     1  UNL1        0.3352
     28 C          11.2851    1.3862    0.0000 C.ar    1  UNL1        0.0304
     29 C           6.0010   -1.6418    0.0000 C.3     1  UNL1        0.1886
     30 C           6.0010   -2.6418    0.0000 C.3     1  UNL1        0.1341
     31 C          11.3819    0.3910    0.0000 C.ar    1  UNL1       -0.0172
     32 C          12.2017    1.7859    0.0000 C.ar    1  UNL1        0.0983
     33 C           5.1350   -3.1418    0.0000 C.3     1  UNL1        0.1141
     34 C           4.2690   -1.6418    0.0000 C.3     1  UNL1        0.1130
     35 C           4.2690   -2.6418    0.0000 C.3     1  UNL1        0.1119
     36 C          12.3585    0.1755    0.0000 C.ar    1  UNL1        0.0921
     37 C           3.3890    1.9640    0.0000 C.3     1  UNL1        0.0820
     38 C           3.4030   -1.1418    0.0000 C.3     1  UNL1        0.0730
     39 H           8.4928    1.0018    0.0000 H       1  UNL1        0.0316
     40 H           8.6236    3.7706    0.0000 H       1  UNL1        0.0419
     41 H           6.6850    3.5108    0.0000 H       1  UNL1        0.0274
     42 H           6.2838    2.8220    0.0000 H       1  UNL1        0.0274
     43 H           8.1632    3.8974    0.0000 H       1  UNL1        0.0274
     44 H           7.3661    3.9005    0.0000 H       1  UNL1        0.0274
     45 H           7.9829   -0.1988    0.0000 H       1  UNL1        0.0296
     46 H           8.3767    0.4956    0.0000 H       1  UNL1        0.0296
     47 H           9.1085    0.9143    0.0000 H       1  UNL1        0.0310
     48 H           9.9067    0.9020    0.0000 H       1  UNL1        0.0310
     49 H           7.9992    0.9231    0.0000 H       1  UNL1        0.0235
     50 H           8.6168    0.3007    0.0000 H       1  UNL1        0.0235
     51 H           9.2392    0.9183    0.0000 H       1  UNL1        0.0235
     52 H           7.4046   -0.4508    0.0000 H       1  UNL1        0.0641
     53 H           6.3390    2.9664    0.0000 H       1  UNL1        0.0238
     54 H           5.4912    2.7427    0.0000 H       1  UNL1        0.0238
     55 H           5.7148    1.8949    0.0000 H       1  UNL1        0.0238
     56 H          10.4170    1.2729    0.0000 H       1  UNL1        0.0786
     57 H           5.4277    0.0766    0.0000 H       1  UNL1        0.0603
     58 H           6.0010   -1.0218    0.0000 H       1  UNL1        0.0938
     59 H           6.0010   -3.2618    0.0000 H       1  UNL1        0.0671
     60 H          10.9180   -0.0203    0.0000 H       1  UNL1        0.0653
     61 H          12.3353    2.3914    0.0000 H       1  UNL1        0.1033
     62 H           4.5981   -3.4518    0.0000 H       1  UNL1        0.0648
     63 H           4.2690   -1.0218    0.0000 H       1  UNL1        0.0647
     64 H           3.7320   -2.3318    0.0000 H       1  UNL1        0.0647
     65 H          12.6063   -0.3928    0.0000 H       1  UNL1        0.1029
     66 H           3.7072    2.4961    0.0000 H       1  UNL1        0.0661
     67 H           2.8569    2.2822    0.0000 H       1  UNL1        0.0661
     68 H           3.0707    1.4319    0.0000 H       1  UNL1        0.0661
     69 H           3.8015   -0.6669    0.0000 H       1  UNL1        0.0584
     70 H           3.0044   -0.6669    0.0000 H       1  UNL1        0.0584
     71 H           6.8671   -3.7618    0.0000 H       1  UNL1        0.2101
     72 H           4.5981   -4.4518    0.0000 H       1  UNL1        0.2100
     73 H           3.4030   -3.7618    0.0000 H       1  UNL1        0.2100
     74 H           2.0000   -1.3318    0.0000 H       1  UNL1        0.2095
@<TRIPOS>BOND
     1     1    24    1
     2     1    25    1
     3    22     2    1
     4    29     2    1
     5     3    25    2
     6     4    27    1
     7     4    37    1
     8     5    29    1
     9     5    34    1
    10     6    27    2
    11     7    32   ar
    12     7    36   ar
    13    30     8    1
    14     8    71    1
    15    33     9    1
    16     9    72    1
    17    35    10    1
    18    10    73    1
    19    11    38    1
    20    11    74    1
    21    12    13    1
    22    12    15    1
    23    12    19    1
    24    12    21    1
    25    13    14    1
    26    13    18    1
    27    13    39    1
    28    14    16    1
    29    14    20    1
    30    14    23    1
    31    15    17    1
    32    15    25    1
    33    15    40    1
    34    16    17    1
    35    16    41    1
    36    16    42    1
    37    17    43    1
    38    17    44    1
    39    18    22    1
    40    18    45    1
    41    18    46    1
    42    19    24    1
    43    19    47    1
    44    19    48    1
    45    20    26    2
    46    20    27    1
    47    21    49    1
    48    21    50    1
    49    21    51    1
    50    22    26    1
    51    22    52    1
    52    23    53    1
    53    23    54    1
    54    23    55    1
    55    24    28    1
    56    24    56    1
    57    26    57    1
    58    28    31   ar
    59    28    32   ar
    60    29    30    1
    61    29    58    1
    62    30    33    1
    63    30    59    1
    64    31    36   ar
    65    31    60    1
    66    32    61    1
    67    33    35    1
    68    33    62    1
    69    34    35    1
    70    34    38    1
    71    34    63    1
    72    35    64    1
    73    36    65    1
    74    37    66    1
    75    37    67    1
    76    37    68    1
    77    38    69    1
    78    38    70    1
