@<TRIPOS>MOLECULE
IMPHY009841
 55 56 0 0 0
SMALL
GASTEIGER

@<TRIPOS>ATOM
      1 O           3.5000   -3.0482    0.0000 O.3     1  UNL1       -0.3848
      2 C           5.2320    1.9518    0.0000 C.3     1  UNL1       -0.0265
      3 C           5.2320    0.9518    0.0000 C.3     1  UNL1       -0.0075
      4 C           6.1260    2.4865    0.0000 C.3     1  UNL1       -0.0313
      5 C           6.1260    0.4171    0.0000 C.3     1  UNL1       -0.0436
      6 C           7.0321    1.9726    0.0000 C.3     1  UNL1       -0.0476
      7 C           4.3660    2.4518    0.0000 C.3     1  UNL1       -0.0452
      8 C           4.3660    0.4518    0.0000 C.2     1  UNL1       -0.0643
      9 C           7.0321    0.9310    0.0000 C.3     1  UNL1       -0.0518
     10 C           3.5000    1.9518    0.0000 C.3     1  UNL1       -0.0314
     11 C           5.2320   -0.0482    0.0000 C.3     1  UNL1       -0.0556
     12 C           3.5000    0.9518    0.0000 C.2     1  UNL1       -0.0728
     13 C           6.6160    3.3582    0.0000 C.3     1  UNL1       -0.0595
     14 C           5.6160    3.3466    0.0000 C.3     1  UNL1       -0.0595
     15 C           4.3660   -0.5482    0.0000 C.3     1  UNL1       -0.0281
     16 C           3.5000   -1.0482    0.0000 C.3     1  UNL1       -0.0169
     17 C           2.6340    0.4518    0.0000 C.3     1  UNL1       -0.0435
     18 C           3.5000   -2.0482    0.0000 C.3     1  UNL1        0.0814
     19 C           4.5000   -2.0482    0.0000 C.3     1  UNL1       -0.0324
     20 C           2.5000   -2.0482    0.0000 C.2     1  UNL1       -0.0602
     21 C           2.0000   -2.9142    0.0000 C.2     1  UNL1       -0.1000
     22 H           5.2255    2.8018    0.0000 H       1  UNL1        0.0314
     23 H           5.7214   -0.0527    0.0000 H       1  UNL1        0.0274
     24 H           6.5196   -0.0619    0.0000 H       1  UNL1        0.0274
     25 H           7.6429    1.8665    0.0000 H       1  UNL1        0.0271
     26 H           7.2411    2.5563    0.0000 H       1  UNL1        0.0271
     27 H           4.7646    2.9267    0.0000 H       1  UNL1        0.0271
     28 H           3.9675    2.9267    0.0000 H       1  UNL1        0.0271
     29 H           7.2411    0.3473    0.0000 H       1  UNL1        0.0266
     30 H           7.6429    1.0371    0.0000 H       1  UNL1        0.0266
     31 H           3.2880    2.5344    0.0000 H       1  UNL1        0.0310
     32 H           2.8894    1.8441    0.0000 H       1  UNL1        0.0310
     33 H           4.6120   -0.0482    0.0000 H       1  UNL1        0.0238
     34 H           5.2320   -0.6682    0.0000 H       1  UNL1        0.0238
     35 H           5.8520   -0.0482    0.0000 H       1  UNL1        0.0238
     36 H           6.1493    3.6628    0.0000 H       1  UNL1        0.0235
     37 H           7.1564    3.0544    0.0000 H       1  UNL1        0.0235
     38 H           6.9197    3.8987    0.0000 H       1  UNL1        0.0235
     39 H           6.0755    3.6620    0.0000 H       1  UNL1        0.0235
     40 H           5.2998    3.8800    0.0000 H       1  UNL1        0.0235
     41 H           5.0827    3.0304    0.0000 H       1  UNL1        0.0235
     42 H           4.5781   -1.1308    0.0000 H       1  UNL1        0.0311
     43 H           4.9766   -0.4405    0.0000 H       1  UNL1        0.0311
     44 H           3.2880   -0.4656    0.0000 H       1  UNL1        0.0299
     45 H           2.8894   -1.1559    0.0000 H       1  UNL1        0.0299
     46 H           2.3240    0.9887    0.0000 H       1  UNL1        0.0274
     47 H           2.0970    0.1418    0.0000 H       1  UNL1        0.0274
     48 H           2.9440   -0.0851    0.0000 H       1  UNL1        0.0274
     49 H           4.5000   -2.6682    0.0000 H       1  UNL1        0.0260
     50 H           5.1200   -2.0482    0.0000 H       1  UNL1        0.0260
     51 H           4.5000   -1.4282    0.0000 H       1  UNL1        0.0260
     52 H           2.1900   -1.5113    0.0000 H       1  UNL1        0.0594
     53 H           2.9631   -3.3582    0.0000 H       1  UNL1        0.2106
     54 H           1.3800   -2.9142    0.0000 H       1  UNL1        0.0533
     55 H           2.3100   -3.4512    0.0000 H       1  UNL1        0.0533
@<TRIPOS>BOND
     1    18     1    1
     2     1    53    1
     3     2     3    1
     4     2     4    1
     5     2     7    1
     6     2    22    1
     7     3     5    1
     8     3     8    1
     9     3    11    1
    10     4     6    1
    11     4    13    1
    12     4    14    1
    13     5     9    1
    14     5    23    1
    15     5    24    1
    16     6     9    1
    17     6    25    1
    18     6    26    1
    19     7    10    1
    20     7    27    1
    21     7    28    1
    22     8    12    2
    23     8    15    1
    24     9    29    1
    25     9    30    1
    26    10    12    1
    27    10    31    1
    28    10    32    1
    29    11    33    1
    30    11    34    1
    31    11    35    1
    32    12    17    1
    33    13    37    1
    34    13    38    1
    35    13    39    1
    36    14    36    1
    37    14    40    1
    38    14    41    1
    39    15    16    1
    40    15    42    1
    41    15    43    1
    42    16    18    1
    43    16    44    1
    44    16    45    1
    45    17    46    1
    46    17    47    1
    47    17    48    1
    48    18    19    1
    49    18    20    1
    50    19    49    1
    51    19    50    1
    52    19    51    1
    53    20    21    2
    54    20    52    1
    55    21    54    1
    56    21    55    1
