@<TRIPOS>MOLECULE
IMPHY008553
 57 60 0 0 0
SMALL
GASTEIGER

@<TRIPOS>ATOM
      1 O           7.4260   -0.1897    0.0000 O.3     1  UNL1       -0.4824
      2 O           3.9061   -0.1897    0.0000 O.3     1  UNL1       -0.4811
      3 O           5.6660    2.8450    0.0000 O.3     1  UNL1       -0.5052
      4 O           7.4144    2.8796    0.0000 O.2     1  UNL1       -0.2917
      5 O           8.3244   -1.6758    0.0000 O.3     1  UNL1       -0.5063
      6 O          11.7884   -1.6892    0.0000 O.3     1  UNL1       -0.5066
      7 C           5.6660   -0.1550    0.0000 C.ar    1  UNL1        0.0412
      8 C           6.5320    0.3450    0.0000 C.ar    1  UNL1        0.1424
      9 C           8.3321    0.3242    0.0000 C.3     1  UNL1        0.1355
     10 C           3.0000    0.3242    0.0000 C.3     1  UNL1        0.1235
     11 C           4.8000    0.3450    0.0000 C.ar    1  UNL1        0.1393
     12 C           6.5320    1.3450    0.0000 C.ar    1  UNL1        0.1015
     13 C           4.8000    1.3450    0.0000 C.ar    1  UNL1        0.0591
     14 C           8.3321    1.3658    0.0000 C.3     1  UNL1        0.0521
     15 C           5.6660    1.8450    0.0000 C.ar    1  UNL1        0.1415
     16 C           7.4260    1.8797    0.0000 C.2     1  UNL1        0.1741
     17 C           5.6660   -1.1550    0.0000 C.3     1  UNL1       -0.0023
     18 C           3.0000    1.3658    0.0000 C.2     1  UNL1       -0.0408
     19 C           3.9061    1.8797    0.0000 C.2     1  UNL1       -0.0478
     20 C           9.1962   -0.1792    0.0000 C.ar    1  UNL1        0.0347
     21 C           2.0000    0.3203    0.0000 C.3     1  UNL1       -0.0215
     22 C           2.5033   -0.5438    0.0000 C.3     1  UNL1       -0.0215
     23 C           4.8000   -1.6550    0.0000 C.2     1  UNL1       -0.0807
     24 C           9.1923   -1.1791    0.0000 C.ar    1  UNL1        0.1270
     25 C          10.0641    0.3175    0.0000 C.ar    1  UNL1       -0.0481
     26 C           4.8000   -2.6550    0.0000 C.2     1  UNL1       -0.0793
     27 C          10.0564   -1.6825    0.0000 C.ar    1  UNL1        0.0217
     28 C          10.9282   -0.1858    0.0000 C.ar    1  UNL1       -0.0196
     29 C          10.9243   -1.1858    0.0000 C.ar    1  UNL1        0.1203
     30 C           3.9340   -3.1550    0.0000 C.3     1  UNL1       -0.0440
     31 C           5.6660   -3.1550    0.0000 C.3     1  UNL1       -0.0440
     32 H           8.3272   -0.5258    0.0000 H       1  UNL1        0.0790
     33 H           8.9429    1.2597    0.0000 H       1  UNL1        0.0385
     34 H           8.5411    1.9495    0.0000 H       1  UNL1        0.0385
     35 H           5.8781   -1.7376    0.0000 H       1  UNL1        0.0358
     36 H           6.2766   -1.0473    0.0000 H       1  UNL1        0.0358
     37 H           2.4643    1.6779    0.0000 H       1  UNL1        0.0611
     38 H           3.9132    2.4996    0.0000 H       1  UNL1        0.0624
     39 H           1.9652   -0.2358    0.0000 H       1  UNL1        0.0271
     40 H           2.1954   -1.0819    0.0000 H       1  UNL1        0.0271
     41 H           3.0415   -0.8517    0.0000 H       1  UNL1        0.0271
     42 H           1.9976    0.9403    0.0000 H       1  UNL1        0.0271
     43 H           1.3800    0.3179    0.0000 H       1  UNL1        0.0271
     44 H           2.0024   -0.2997    0.0000 H       1  UNL1        0.0271
     45 H           4.2631   -1.3450    0.0000 H       1  UNL1        0.0575
     46 H          10.0665    0.9375    0.0000 H       1  UNL1        0.0624
     47 H           5.1291    3.1550    0.0000 H       1  UNL1        0.2922
     48 H          10.0540   -2.3025    0.0000 H       1  UNL1        0.0691
     49 H          11.4663    0.1221    0.0000 H       1  UNL1        0.0654
     50 H           5.3560   -3.6919    0.0000 H       1  UNL1        0.0274
     51 H           6.2030   -3.4650    0.0000 H       1  UNL1        0.0274
     52 H           5.9760   -2.6181    0.0000 H       1  UNL1        0.0274
     53 H           3.6240   -2.6181    0.0000 H       1  UNL1        0.0274
     54 H           3.3970   -3.4650    0.0000 H       1  UNL1        0.0274
     55 H           4.2440   -3.6919    0.0000 H       1  UNL1        0.0274
     56 H           8.3220   -2.2958    0.0000 H       1  UNL1        0.2921
     57 H          12.3266   -1.3812    0.0000 H       1  UNL1        0.2921
@<TRIPOS>BOND
     1     1     8    1
     2     1     9    1
     3     2    10    1
     4     2    11    1
     5     3    15    1
     6     3    47    1
     7     4    16    2
     8     5    24    1
     9     5    56    1
    10     6    29    1
    11     6    57    1
    12     7     8   ar
    13     7    11   ar
    14     7    17    1
    15     8    12   ar
    16     9    14    1
    17     9    20    1
    18     9    32    1
    19    10    18    1
    20    10    21    1
    21    10    22    1
    22    11    13   ar
    23    12    15   ar
    24    12    16    1
    25    13    15   ar
    26    13    19    1
    27    14    16    1
    28    14    33    1
    29    14    34    1
    30    17    23    1
    31    17    35    1
    32    17    36    1
    33    18    19    2
    34    18    37    1
    35    19    38    1
    36    20    24   ar
    37    20    25   ar
    38    21    42    1
    39    21    43    1
    40    21    44    1
    41    22    39    1
    42    22    40    1
    43    22    41    1
    44    23    26    2
    45    23    45    1
    46    24    27   ar
    47    25    28   ar
    48    25    46    1
    49    26    30    1
    50    26    31    1
    51    27    29   ar
    52    27    48    1
    53    28    29   ar
    54    28    49    1
    55    30    53    1
    56    30    54    1
    57    30    55    1
    58    31    50    1
    59    31    51    1
    60    31    52    1
