@<TRIPOS>MOLECULE
IMPHY005121
 27 28 0 0 0
SMALL
GASTEIGER

@<TRIPOS>ATOM
      1 C           4.5981    0.0000    0.0000 C.ar    1  UNL1       -0.0147
      2 C           4.5981    1.0000    0.0000 C.ar    1  UNL1       -0.0174
      3 C           2.8660    0.0000    0.0000 C.ar    1  UNL1       -0.0469
      4 C           2.8660    1.0000    0.0000 C.ar    1  UNL1       -0.0469
      5 C           5.4920   -0.5347    0.0000 C.ar    1  UNL1       -0.0427
      6 C           3.7320   -0.5000    0.0000 C.ar    1  UNL1       -0.0506
      7 C           3.7320    1.5000    0.0000 C.ar    1  UNL1       -0.0509
      8 C           5.4920    1.5346    0.0000 C.ar    1  UNL1       -0.0540
      9 C           6.3981   -0.0208    0.0000 C.ar    1  UNL1       -0.0582
     10 C           2.0000   -0.5000    0.0000 C.3     1  UNL1       -0.0394
     11 C           2.0000    1.5000    0.0000 C.3     1  UNL1       -0.0394
     12 C           6.3981    1.0208    0.0000 C.ar    1  UNL1       -0.0609
     13 C           5.4804   -1.5346    0.0000 C.3     1  UNL1       -0.0391
     14 H           3.7320   -1.1200    0.0000 H       1  UNL1        0.0626
     15 H           3.7320    2.1200    0.0000 H       1  UNL1        0.0626
     16 H           5.4848    2.1546    0.0000 H       1  UNL1        0.0624
     17 H           6.9338   -0.3329    0.0000 H       1  UNL1        0.0620
     18 H           1.6900    0.0369    0.0000 H       1  UNL1        0.0278
     19 H           1.4631   -0.8100    0.0000 H       1  UNL1        0.0278
     20 H           2.3100   -1.0370    0.0000 H       1  UNL1        0.0278
     21 H           2.3100    2.0369    0.0000 H       1  UNL1        0.0278
     22 H           1.4631    1.8100    0.0000 H       1  UNL1        0.0278
     23 H           1.6900    0.9630    0.0000 H       1  UNL1        0.0278
     24 H           6.9338    1.3328    0.0000 H       1  UNL1        0.0618
     25 H           4.8605   -1.5275    0.0000 H       1  UNL1        0.0278
     26 H           5.4733   -2.1546    0.0000 H       1  UNL1        0.0278
     27 H           6.1004   -1.5418    0.0000 H       1  UNL1        0.0278
@<TRIPOS>BOND
     1     1     2   ar
     2     1     5   ar
     3     1     6   ar
     4     2     7   ar
     5     2     8   ar
     6     3     4   ar
     7     3     6   ar
     8     3    10    1
     9     4     7   ar
    10     4    11    1
    11     5     9   ar
    12     5    13    1
    13     6    14    1
    14     7    15    1
    15     8    12   ar
    16     8    16    1
    17     9    12   ar
    18     9    17    1
    19    10    18    1
    20    10    19    1
    21    10    20    1
    22    11    21    1
    23    11    22    1
    24    11    23    1
    25    12    24    1
    26    13    25    1
    27    13    26    1
    28    13    27    1
