@<TRIPOS>MOLECULE
IMPHY011372
 43 47 0 0 0
SMALL
GASTEIGER

@<TRIPOS>ATOM
      1 O           8.5991   -1.4050    0.0000 O.3     1  UNL1       -0.3526
      2 O           5.1350    1.5950    0.0000 O.3     1  UNL1       -0.3157
      3 O           6.0010    0.0950    0.0000 O.3     1  UNL1       -0.4505
      4 O           6.0010   -0.9050    0.0000 O.3     1  UNL1       -0.2178
      5 O           6.0010   -2.9050    0.0000 O.3     1  UNL1       -0.2175
      6 O           7.7331   -3.9050    0.0000 O.3     1  UNL1       -0.2176
      7 O           2.5369    0.0950    0.0000 O.3     1  UNL1       -0.2173
      8 O           4.2690   -0.9050    0.0000 O.3     1  UNL1       -0.2135
      9 O           2.5369    2.0950    0.0000 O.3     1  UNL1       -0.2176
     10 O           9.4931    0.0603    0.0000 O.2     1  UNL1       -0.4533
     11 O           9.4651   -3.9050    0.0000 O.3     1  UNL1       -0.2176
     12 O           3.4030    3.5950    0.0000 O.3     1  UNL1       -0.2176
     13 O           7.7331    3.0950    0.0000 O.3     1  UNL1       -0.2862
     14 O           9.4815    3.1296    0.0000 O.2     1  UNL1       -0.2862
     15 O          13.8555   -1.4392    0.0000 O.3     1  UNL1       -0.2866
     16 C           7.7331   -0.9050    0.0000 C.3     1  UNL1        0.1296
     17 C           6.8671   -1.4050    0.0000 C.3     1  UNL1        0.2097
     18 C           6.8671   -2.4050    0.0000 C.3     1  UNL1        0.2171
     19 C           7.7331   -2.9050    0.0000 C.3     1  UNL1        0.2142
     20 C           8.5991   -2.4050    0.0000 C.3     1  UNL1        0.1808
     21 C           7.7331    0.0950    0.0000 C.ar    1  UNL1        0.0697
     22 C           3.4030    0.5950    0.0000 C.3     1  UNL1        0.2211
     23 C           4.2690    0.0950    0.0000 C.3     1  UNL1        0.2542
     24 C           3.4030    1.5950    0.0000 C.3     1  UNL1        0.2145
     25 C           5.1350    0.5950    0.0000 C.3     1  UNL1        0.3218
     26 C           4.2690    2.0950    0.0000 C.3     1  UNL1        0.1846
     27 C           6.8671    0.5950    0.0000 C.ar    1  UNL1        0.1455
     28 C           9.4651   -2.9050    0.0000 C.3     1  UNL1        0.2141
     29 C           8.5991    0.5950    0.0000 C.ar    1  UNL1        0.1523
     30 C           4.2690    3.0950    0.0000 C.3     1  UNL1        0.2142
     31 C           8.5991    1.5950    0.0000 C.ar    1  UNL1        0.1123
     32 C           6.8671    1.5950    0.0000 C.ar    1  UNL1        0.0790
     33 C           7.7331    2.0950    0.0000 C.ar    1  UNL1        0.2047
     34 C           9.4931    2.1297    0.0000 C.ar    1  UNL1        0.2047
     35 C          10.3991    0.5742    0.0000 C.ar    1  UNL1        0.1484
     36 C          10.3991    1.6158    0.0000 C.ar    1  UNL1        0.0797
     37 C          11.2632    0.0709    0.0000 C.ar    1  UNL1        0.0349
     38 C          12.1312    0.5675    0.0000 C.ar    1  UNL1        0.0063
     39 C          11.2594   -0.9291    0.0000 C.ar    1  UNL1        0.0063
     40 C          12.9953    0.0642    0.0000 C.ar    1  UNL1        0.0421
     41 C          12.1235   -1.4325    0.0000 C.ar    1  UNL1        0.0421
     42 C          12.9914   -0.9358    0.0000 C.ar    1  UNL1        0.1957
     43 H           8.4259   -0.5050    0.0000 H       1  UNL1        0.0681
@<TRIPOS>BOND
     1     1    16    1
     2     1    20    1
     3     2    25    1
     4     2    26    1
     5     3    27    1
     6    10    29   ar
     7    10    35   ar
     8    11    28    1
     9    12    30    1
    10    13    33    1
    11    14    34    2
    12    15    42    1
    13    16    17    1
    14    16    21    1
    15    16    43    1
    16    17     4    1
    17    17    18    1
    18    18     5    1
    19    18    19    1
    20    19     6    1
    21    19    20    1
    22    20    28    1
    23    21    27   ar
    24    21    29   ar
    25    22     7    1
    26    22    23    1
    27    22    24    1
    28    23     8    1
    29    23    25    1
    30    24     9    1
    31    24    26    1
    32    25     3    1
    33    26    30    1
    34    27    32   ar
    35    29    31   ar
    36    31    33   ar
    37    31    34   ar
    38    32    33   ar
    39    34    36   ar
    40    35    36   ar
    41    35    37    1
    42    37    38   ar
    43    37    39   ar
    44    38    40   ar
    45    39    41   ar
    46    40    42   ar
    47    41    42   ar
