@<TRIPOS>MOLECULE
IMPHY010473
 60 64 0 0 0
SMALL
GASTEIGER

@<TRIPOS>ATOM
      1 O           5.1064   -3.1484    0.0000 O.3     1  UNL1       -0.4604
      2 O           4.8299   -0.4202    0.0000 O.3     1  UNL1       -0.3870
      3 O           7.8045    0.5508    0.0000 O.2     1  UNL1       -0.2749
      4 O           3.6636    1.1819    0.0000 O.3     1  UNL1       -0.4593
      5 O           3.3493   -3.3703    0.0000 O.2     1  UNL1       -0.2505
      6 O           2.0000    1.8205    0.0000 O.2     1  UNL1       -0.2505
      7 N           6.2093    1.7314    0.0000 N.am    1  UNL1       -0.2943
      8 C           6.7093   -1.1042    0.0000 C.3     1  UNL1        0.0823
      9 C           5.7696   -0.7622    0.0000 C.3     1  UNL1        0.0890
     10 C           5.1596   -1.5471    0.0000 C.3     1  UNL1        0.0389
     11 C           6.6720   -2.0976    0.0000 C.3     1  UNL1        0.0129
     12 C           5.7162   -2.3708    0.0000 C.3     1  UNL1        0.1131
     13 C           5.2696    0.1038    0.0000 C.3     1  UNL1       -0.0005
     14 C           7.6490   -0.7622    0.0000 C.3     1  UNL1       -0.0359
     15 C           4.2106   -1.8228    0.0000 C.3     1  UNL1        0.0625
     16 C           5.4432    1.0886    0.0000 C.3     1  UNL1        0.0656
     17 C           6.8197    0.3772    0.0000 C.2     1  UNL1        0.2252
     18 C           7.4589   -2.7146    0.0000 C.3     1  UNL1       -0.0486
     19 C           8.1490    0.1038    0.0000 C.3     1  UNL1       -0.0506
     20 C           4.5772    1.5886    0.0000 C.3     1  UNL1        0.1223
     21 C           4.1778   -2.8104    0.0000 C.2     1  UNL1        0.3107
     22 C           7.2093    1.7314    0.0000 C.3     1  UNL1        0.0151
     23 C           7.9753    1.0886    0.0000 C.3     1  UNL1       -0.0371
     24 C           3.4210   -1.2092    0.0000 C.3     1  UNL1       -0.0518
     25 C           7.3180   -3.7046    0.0000 C.3     1  UNL1       -0.0649
     26 C           4.4727    2.5832    0.0000 C.3     1  UNL1       -0.0012
     27 C           3.4945    2.7911    0.0000 C.3     1  UNL1        0.0570
     28 C           2.9945    1.9251    0.0000 C.2     1  UNL1        0.3104
     29 C           3.0878    3.7046    0.0000 C.3     1  UNL1       -0.0522
     30 H           4.6822   -0.8439    0.0000 H       1  UNL1        0.0373
     31 H           6.5529   -2.7060    0.0000 H       1  UNL1        0.0347
     32 H           6.1906   -3.0761    0.0000 H       1  UNL1        0.0741
     33 H           4.7155    0.3821    0.0000 H       1  UNL1        0.0312
     34 H           4.8441   -0.3471    0.0000 H       1  UNL1        0.0312
     35 H           7.6850   -1.3811    0.0000 H       1  UNL1        0.0276
     36 H           8.2522   -0.9052    0.0000 H       1  UNL1        0.0276
     37 H           3.6493   -2.0860    0.0000 H       1  UNL1        0.0415
     38 H           5.3691    1.9354    0.0000 H       1  UNL1        0.0538
     39 H           8.0483   -2.9072    0.0000 H       1  UNL1        0.0267
     40 H           7.7510   -2.1677    0.0000 H       1  UNL1        0.0267
     41 H           8.5744   -0.3471    0.0000 H       1  UNL1        0.0266
     42 H           8.7030    0.3821    0.0000 H       1  UNL1        0.0266
     43 H           4.3549   -0.8187    0.0000 H       1  UNL1        0.2102
     44 H           5.2901    2.0516    0.0000 H       1  UNL1        0.0753
     45 H           7.7273    2.0721    0.0000 H       1  UNL1        0.0465
     46 H           7.0314    2.3254    0.0000 H       1  UNL1        0.0465
     47 H           8.5911    1.0167    0.0000 H       1  UNL1        0.0280
     48 H           8.2209    1.6580    0.0000 H       1  UNL1        0.0280
     49 H           3.8015   -0.7196    0.0000 H       1  UNL1        0.0238
     50 H           2.9315   -0.8287    0.0000 H       1  UNL1        0.0238
     51 H           3.0406   -1.6987    0.0000 H       1  UNL1        0.0238
     52 H           6.7042   -3.6173    0.0000 H       1  UNL1        0.0230
     53 H           7.2307   -4.3184    0.0000 H       1  UNL1        0.0230
     54 H           7.9319   -3.7920    0.0000 H       1  UNL1        0.0230
     55 H           5.0927    2.5832    0.0000 H       1  UNL1        0.0309
     56 H           4.5375    3.1998    0.0000 H       1  UNL1        0.0309
     57 H           2.8754    2.8235    0.0000 H       1  UNL1        0.0412
     58 H           3.6542    3.9568    0.0000 H       1  UNL1        0.0238
     59 H           2.8356    4.2710    0.0000 H       1  UNL1        0.0238
     60 H           2.5214    3.4524    0.0000 H       1  UNL1        0.0238
@<TRIPOS>BOND
     1     1    12    1
     2     1    21    1
     3     9     2    1
     4     2    43    1
     5     3    17    2
     6     4    20    1
     7     4    28    1
     8     5    21    2
     9     6    28    2
    10     7    16    1
    11     7    17   am
    12     7    22    1
    13     8     9    1
    14     8    11    1
    15     8    14    1
    16     8    17    1
    17     9    10    1
    18     9    13    1
    19    10    12    1
    20    10    15    1
    21    10    30    1
    22    11    12    1
    23    11    18    1
    24    11    31    1
    25    12    32    1
    26    13    16    1
    27    13    33    1
    28    13    34    1
    29    14    19    1
    30    14    35    1
    31    14    36    1
    32    15    21    1
    33    15    24    1
    34    15    37    1
    35    16    20    1
    36    16    38    1
    37    18    25    1
    38    18    39    1
    39    18    40    1
    40    19    23    1
    41    19    41    1
    42    19    42    1
    43    20    26    1
    44    20    44    1
    45    22    23    1
    46    22    45    1
    47    22    46    1
    48    23    47    1
    49    23    48    1
    50    24    49    1
    51    24    50    1
    52    24    51    1
    53    25    52    1
    54    25    53    1
    55    25    54    1
    56    26    27    1
    57    26    55    1
    58    26    56    1
    59    27    28    1
    60    27    29    1
    61    27    57    1
    62    29    58    1
    63    29    59    1
    64    29    60    1
