@<TRIPOS>MOLECULE
IMPHY005995
 19 18 0 0 0
SMALL
GASTEIGER

@<TRIPOS>ATOM
      1 O           2.5369   -0.0600    0.0000 O.3     1  UNL1       -0.3907
      2 C           4.2690   -0.0600    0.0000 C.2     1  UNL1       -0.0515
      3 C           6.0010   -0.0600    0.0000 C.3     1  UNL1       -0.0373
      4 C           5.1350    0.4400    0.0000 C.2     1  UNL1       -0.0831
      5 C           3.4030    0.4400    0.0000 C.3     1  UNL1        0.0650
      6 C           4.2690   -1.0600    0.0000 C.3     1  UNL1       -0.0416
      7 C           6.8671    0.4400    0.0000 C.3     1  UNL1       -0.0618
      8 H           5.6025   -0.5349    0.0000 H       1  UNL1        0.0305
      9 H           6.3996   -0.5349    0.0000 H       1  UNL1        0.0305
     10 H           5.1350    1.0600    0.0000 H       1  UNL1        0.0572
     11 H           3.8015    0.9149    0.0000 H       1  UNL1        0.0604
     12 H           3.0044    0.9149    0.0000 H       1  UNL1        0.0604
     13 H           3.6490   -1.0600    0.0000 H       1  UNL1        0.0275
     14 H           4.2690   -1.6800    0.0000 H       1  UNL1        0.0275
     15 H           4.8890   -1.0600    0.0000 H       1  UNL1        0.0275
     16 H           7.1771   -0.0969    0.0000 H       1  UNL1        0.0233
     17 H           7.4040    0.7500    0.0000 H       1  UNL1        0.0233
     18 H           6.5571    0.9769    0.0000 H       1  UNL1        0.0233
     19 H           2.0000    0.2500    0.0000 H       1  UNL1        0.2098
@<TRIPOS>BOND
     1     1     5    1
     2     1    19    1
     3     2     4    2
     4     2     5    1
     5     2     6    1
     6     3     4    1
     7     3     7    1
     8     3     8    1
     9     3     9    1
    10     4    10    1
    11     5    11    1
    12     5    12    1
    13     6    13    1
    14     6    14    1
    15     6    15    1
    16     7    16    1
    17     7    17    1
    18     7    18    1
