@<TRIPOS>MOLECULE
IMPHY009621
 22 21 0 0 0
SMALL
GASTEIGER

@<TRIPOS>ATOM
      1 C           3.7320   -0.3170    0.0000 C.3     1  UNL1        0.0033
      2 C           4.5981    0.1830    0.0000 C.2     1  UNL1       -0.0703
      3 C           3.2320    0.5490    0.0000 C.3     1  UNL1       -0.0526
      4 C           4.2320   -1.1830    0.0000 C.3     1  UNL1       -0.0526
      5 C           2.8660   -0.8170    0.0000 C.2     1  UNL1       -0.0815
      6 C           5.4641   -0.3170    0.0000 C.3     1  UNL1       -0.0432
      7 C           4.5981    1.1830    0.0000 C.2     1  UNL1       -0.0989
      8 C           2.0000   -0.3170    0.0000 C.2     1  UNL1       -0.1018
      9 H           3.6951   -1.4930    0.0000 H       1  UNL1        0.0241
     10 H           4.5420   -1.7200    0.0000 H       1  UNL1        0.0241
     11 H           4.7690   -0.8730    0.0000 H       1  UNL1        0.0241
     12 H           3.7690    0.8590    0.0000 H       1  UNL1        0.0241
     13 H           2.9220    1.0860    0.0000 H       1  UNL1        0.0241
     14 H           2.6951    0.2390    0.0000 H       1  UNL1        0.0241
     15 H           2.8660   -1.4370    0.0000 H       1  UNL1        0.0575
     16 H           5.1541   -0.8539    0.0000 H       1  UNL1        0.0275
     17 H           6.0010   -0.6270    0.0000 H       1  UNL1        0.0275
     18 H           5.7741    0.2199    0.0000 H       1  UNL1        0.0275
     19 H           5.1350    1.4930    0.0000 H       1  UNL1        0.0535
     20 H           4.0611    1.4930    0.0000 H       1  UNL1        0.0535
     21 H           2.0000    0.3030    0.0000 H       1  UNL1        0.0532
     22 H           1.4631   -0.6270    0.0000 H       1  UNL1        0.0532
@<TRIPOS>BOND
     1     1     2    1
     2     1     3    1
     3     1     4    1
     4     1     5    1
     5     2     6    1
     6     2     7    2
     7     3    12    1
     8     3    13    1
     9     3    14    1
    10     4     9    1
    11     4    10    1
    12     4    11    1
    13     5     8    2
    14     5    15    1
    15     6    16    1
    16     6    17    1
    17     6    18    1
    18     7    19    1
    19     7    20    1
    20     8    21    1
    21     8    22    1
