@<TRIPOS>MOLECULE
IMPHY016151
 22 22 0 0 0
SMALL
GASTEIGER

@<TRIPOS>ATOM
      1 O           2.0000    1.0000    0.0000 O.2     1  UNL1       -0.2916
      2 O           2.8660    2.5000    0.0000 O.2     1  UNL1       -0.2972
      3 C           3.7320    1.0000    0.0000 C.3     1  UNL1        0.0687
      4 C           2.8660   -0.5000    0.0000 C.ar    1  UNL1        0.0178
      5 C           2.8660    0.5000    0.0000 C.2     1  UNL1        0.1702
      6 C           2.0000   -1.0000    0.0000 C.ar    1  UNL1       -0.0513
      7 C           3.7320   -1.0000    0.0000 C.ar    1  UNL1       -0.0513
      8 C           3.7320    2.0000    0.0000 C.2     1  UNL1        0.1377
      9 C           2.0000   -2.0000    0.0000 C.ar    1  UNL1       -0.0611
     10 C           3.7320   -2.0000    0.0000 C.ar    1  UNL1       -0.0611
     11 C           2.8660   -2.5000    0.0000 C.ar    1  UNL1       -0.0617
     12 C           4.5981    2.5000    0.0000 C.3     1  UNL1       -0.0056
     13 H           3.9441    0.4174    0.0000 H       1  UNL1        0.0422
     14 H           4.3426    1.1077    0.0000 H       1  UNL1        0.0422
     15 H           1.4631   -0.6900    0.0000 H       1  UNL1        0.0624
     16 H           4.2690   -0.6900    0.0000 H       1  UNL1        0.0624
     17 H           1.4631   -2.3100    0.0000 H       1  UNL1        0.0618
     18 H           4.2690   -2.3100    0.0000 H       1  UNL1        0.0618
     19 H           2.8660   -3.1200    0.0000 H       1  UNL1        0.0618
     20 H           4.9081    1.9631    0.0000 H       1  UNL1        0.0306
     21 H           5.1350    2.8100    0.0000 H       1  UNL1        0.0306
     22 H           4.2881    3.0369    0.0000 H       1  UNL1        0.0306
@<TRIPOS>BOND
     1     1     5    2
     2     2     8    2
     3     3     5    1
     4     3     8    1
     5     3    13    1
     6     3    14    1
     7     4     5    1
     8     4     6   ar
     9     4     7   ar
    10     6     9   ar
    11     6    15    1
    12     7    10   ar
    13     7    16    1
    14     8    12    1
    15     9    11   ar
    16     9    17    1
    17    10    11   ar
    18    10    18    1
    19    11    19    1
    20    12    20    1
    21    12    21    1
    22    12    22    1
