@<TRIPOS>MOLECULE
IMPHY004650
 26 26 0 0 0
SMALL
GASTEIGER

@<TRIPOS>ATOM
      1 O           2.8660   -0.2500    0.0000 O.3     1  UNL1       -0.4784
      2 N           5.4641   -0.7500    0.0000 N.ar    1  UNL1       -0.2528
      3 N           3.7320   -1.7500    0.0000 N.ar    1  UNL1       -0.2183
      4 C           4.5981    0.7500    0.0000 C.3     1  UNL1        0.0034
      5 C           5.4641    1.2500    0.0000 C.3     1  UNL1       -0.0477
      6 C           4.5981   -0.2500    0.0000 C.ar    1  UNL1        0.1053
      7 C           3.7320    1.2500    0.0000 C.3     1  UNL1       -0.0568
      8 C           5.4641    2.2500    0.0000 C.3     1  UNL1       -0.0647
      9 C           3.7320   -0.7500    0.0000 C.ar    1  UNL1        0.2367
     10 C           5.4641   -1.7500    0.0000 C.ar    1  UNL1        0.0462
     11 C           4.5981   -2.2500    0.0000 C.ar    1  UNL1        0.0495
     12 C           2.0000   -0.7500    0.0000 C.3     1  UNL1        0.0805
     13 H           4.5981    1.3700    0.0000 H       1  UNL1        0.0363
     14 H           5.6762    0.6674    0.0000 H       1  UNL1        0.0269
     15 H           6.0747    1.3577    0.0000 H       1  UNL1        0.0269
     16 H           4.0420    1.7869    0.0000 H       1  UNL1        0.0236
     17 H           3.1951    1.5600    0.0000 H       1  UNL1        0.0236
     18 H           3.4220    0.7131    0.0000 H       1  UNL1        0.0236
     19 H           6.0841    2.2500    0.0000 H       1  UNL1        0.0230
     20 H           5.4641    2.8700    0.0000 H       1  UNL1        0.0230
     21 H           4.8441    2.2500    0.0000 H       1  UNL1        0.0230
     22 H           6.0010   -2.0600    0.0000 H       1  UNL1        0.0845
     23 H           4.5981   -2.8700    0.0000 H       1  UNL1        0.0846
     24 H           1.6900   -0.2131    0.0000 H       1  UNL1        0.0660
     25 H           1.4631   -1.0600    0.0000 H       1  UNL1        0.0660
     26 H           2.3100   -1.2869    0.0000 H       1  UNL1        0.0660
@<TRIPOS>BOND
     1     1     9    1
     2     1    12    1
     3     2     6   ar
     4     2    10   ar
     5     3     9   ar
     6     3    11   ar
     7     4     5    1
     8     4     6    1
     9     4     7    1
    10     4    13    1
    11     5     8    1
    12     5    14    1
    13     5    15    1
    14     6     9   ar
    15     7    16    1
    16     7    17    1
    17     7    18    1
    18     8    19    1
    19     8    20    1
    20     8    21    1
    21    10    11   ar
    22    10    22    1
    23    11    23    1
    24    12    24    1
    25    12    25    1
    26    12    26    1
