@<TRIPOS>MOLECULE
IMPHY002968
 39 38 0 0 0
SMALL
GASTEIGER

@<TRIPOS>ATOM
      1 K           8.5991    3.9050    0.0000 K       1  UNL1        0.0000
      2 S           6.0010   -0.5950    0.0000 S.3     2  UNL2        0.0000
      3 S           7.7331    2.4050    0.0000 S.3     2  UNL2        0.0000
      4 O           4.2690   -0.5950    0.0000 O.3     2  UNL2        0.0000
      5 O           2.5369   -2.5950    0.0000 O.3     2  UNL2        0.0000
      6 O           4.2690   -3.5950    0.0000 O.3     2  UNL2        0.0000
      7 O           6.0010   -2.5950    0.0000 O.3     2  UNL2        0.0000
      8 O           2.5369    0.4050    0.0000 O.3     2  UNL2        0.0000
      9 O           6.8671    1.9050    0.0000 O.2     2  UNL2        0.0000
     10 O           8.5991    2.9050    0.0000 O.co2   2  UNL2       -0.3300
     11 O           7.2331    3.2710    0.0000 O.2     2  UNL2       -0.3300
     12 O           8.2331    1.5390    0.0000 O.2     2  UNL2       -0.3300
     13 N           6.8671    0.9050    0.0000 N.2     2  UNL2        0.0000
     14 C           3.4030   -2.0950    0.0000 C.3     2  UNL2        0.0000
     15 C           4.2690   -2.5950    0.0000 C.3     2  UNL2        0.0000
     16 C           3.4030   -1.0950    0.0000 C.3     2  UNL2        0.0000
     17 C           5.1350   -2.0950    0.0000 C.3     2  UNL2        0.0000
     18 C           5.1350   -1.0950    0.0000 C.3     2  UNL2        0.0000
     19 C           2.5369   -0.5950    0.0000 C.3     2  UNL2        0.0000
     20 C           6.0010    0.4050    0.0000 C.2     2  UNL2        0.0000
     21 C           5.1350    0.9050    0.0000 C.3     2  UNL2        0.0000
     22 C           5.1350    1.9050    0.0000 C.2     2  UNL2        0.0000
     23 C           4.2690    2.4050    0.0000 C.2     2  UNL2        0.0000
     24 H           3.4030   -2.9450    0.0000 H       2  UNL2        0.0000
     25 H           5.0051   -3.0200    0.0000 H       2  UNL2        0.0000
     26 H           3.4030   -0.2450    0.0000 H       2  UNL2        0.0000
     27 H           5.8711   -1.6700    0.0000 H       2  UNL2        0.0000
     28 H           5.1350   -0.2450    0.0000 H       2  UNL2        0.0000
     29 H           1.9264   -0.4873    0.0000 H       2  UNL2        0.0000
     30 H           2.3249   -1.1776    0.0000 H       2  UNL2        0.0000
     31 H           3.7320   -3.9050    0.0000 H       2  UNL2        0.0000
     32 H           2.0000   -2.2850    0.0000 H       2  UNL2        0.0000
     33 H           6.5380   -2.2850    0.0000 H       2  UNL2        0.0000
     34 H           2.0000    0.7150    0.0000 H       2  UNL2        0.0000
     35 H           4.5244    1.0127    0.0000 H       2  UNL2        0.0000
     36 H           4.9230    0.3224    0.0000 H       2  UNL2        0.0000
     37 H           5.6720    2.2150    0.0000 H       2  UNL2        0.0000
     38 H           4.2690    3.0250    0.0000 H       2  UNL2        0.0000
     39 H           3.7320    2.0950    0.0000 H       2  UNL2        0.0000
@<TRIPOS>UNITY_ATOM_ATTR
1 1
charge 1
10 1
charge -1
@<TRIPOS>BOND
     1     2    18    1
     2     2    20    1
     3     3     9    1
     4     3    10    1
     5     3    11    2
     6     3    12    2
     7     4    16    1
     8     4    18    1
     9     5    14    1
    10     5    32    1
    11     6    15    1
    12     6    31    1
    13     7    17    1
    14     7    33    1
    15     8    19    1
    16     8    34    1
    17     9    13    1
    18    13    20    2
    19    14    15    1
    20    14    16    1
    21    14    24    1
    22    15    17    1
    23    15    25    1
    24    16    19    1
    25    16    26    1
    26    17    18    1
    27    17    27    1
    28    18    28    1
    29    19    29    1
    30    19    30    1
    31    20    21    1
    32    21    22    1
    33    21    35    1
    34    21    36    1
    35    22    23    2
    36    22    37    1
    37    23    38    1
    38    23    39    1
