@<TRIPOS>MOLECULE
IMPHY013820
 24 25 0 0 0
SMALL
GASTEIGER

@<TRIPOS>ATOM
      1 O           4.5981   -1.3623    0.0000 O.3     1  UNL1       -0.5055
      2 O           2.8660   -1.3623    0.0000 O.2     1  UNL1       -0.2922
      3 C           5.4641    0.1377    0.0000 C.ar    1  UNL1        0.0243
      4 C           5.4641    1.1377    0.0000 C.ar    1  UNL1       -0.0144
      5 C           4.5981   -0.3623    0.0000 C.ar    1  UNL1        0.1350
      6 C           3.7320    0.1377    0.0000 C.ar    1  UNL1        0.0591
      7 C           4.5981    1.6377    0.0000 C.ar    1  UNL1       -0.0531
      8 C           3.7320    1.1377    0.0000 C.ar    1  UNL1       -0.0472
      9 C           6.3580   -0.3970    0.0000 C.ar    1  UNL1       -0.0505
     10 C           6.3580    1.6723    0.0000 C.ar    1  UNL1       -0.0539
     11 C           2.8660   -0.3623    0.0000 C.2     1  UNL1        0.1636
     12 C           7.2641    0.1169    0.0000 C.ar    1  UNL1       -0.0611
     13 C           7.2641    1.1585    0.0000 C.ar    1  UNL1       -0.0612
     14 C           2.0000    0.1377    0.0000 C.3     1  UNL1       -0.0013
     15 H           4.5981    2.2577    0.0000 H       1  UNL1        0.0624
     16 H           3.1951    1.4477    0.0000 H       1  UNL1        0.0626
     17 H           6.3509   -1.0170    0.0000 H       1  UNL1        0.0625
     18 H           6.3509    2.2923    0.0000 H       1  UNL1        0.0624
     19 H           7.7998   -0.1952    0.0000 H       1  UNL1        0.0618
     20 H           7.7998    1.4706    0.0000 H       1  UNL1        0.0618
     21 H           2.3100    0.6746    0.0000 H       1  UNL1        0.0309
     22 H           1.4631    0.4477    0.0000 H       1  UNL1        0.0309
     23 H           1.6900   -0.3993    0.0000 H       1  UNL1        0.0309
     24 H           5.1350   -1.6723    0.0000 H       1  UNL1        0.2922
@<TRIPOS>BOND
     1     1     5    1
     2     1    24    1
     3     2    11    2
     4     3     4   ar
     5     3     5   ar
     6     3     9   ar
     7     4     7   ar
     8     4    10   ar
     9     5     6   ar
    10     6     8   ar
    11     6    11    1
    12     7     8   ar
    13     7    15    1
    14     8    16    1
    15     9    12   ar
    16     9    17    1
    17    10    13   ar
    18    10    18    1
    19    11    14    1
    20    12    13   ar
    21    12    19    1
    22    13    20    1
    23    14    21    1
    24    14    22    1
    25    14    23    1
