@<TRIPOS>MOLECULE
IMPHY006096
 76 80 0 0 0
SMALL
GASTEIGER

@<TRIPOS>ATOM
      1 O           6.0010   -4.2675    0.0000 O.3     1  UNL1       -0.3401
      2 O           6.8671   -1.7675    0.0000 O.3     1  UNL1       -0.3301
      3 O           4.2690   -4.2675    0.0000 O.3     1  UNL1       -0.3431
      4 O           4.2690   -3.2675    0.0000 O.3     1  UNL1       -0.3863
      5 O           6.0010   -0.2675    0.0000 O.3     1  UNL1       -0.4599
      6 O           4.2690   -1.2675    0.0000 O.3     1  UNL1       -0.3829
      7 O           6.0010   -6.2675    0.0000 O.3     1  UNL1       -0.3841
      8 O           4.2690   -7.2675    0.0000 O.3     1  UNL1       -0.3864
      9 O           2.5369   -6.2675    0.0000 O.3     1  UNL1       -0.3866
     10 O           8.5991   -2.7675    0.0000 O.3     1  UNL1       -0.4621
     11 O           7.7197    2.7840    0.0000 O.2     1  UNL1       -0.4544
     12 O           9.4651   -4.2675    0.0000 O.2     1  UNL1       -0.2512
     13 O           9.5408   -0.2402    0.0000 O.3     1  UNL1       -0.5065
     14 O           5.1391    1.2541    0.0000 O.2     1  UNL1       -0.2869
     15 O           6.8017    7.2737    0.0000 O.3     1  UNL1       -0.5068
     16 C           6.0010   -3.2675    0.0000 C.3     1  UNL1        0.1195
     17 C           5.1350   -2.7675    0.0000 C.3     1  UNL1        0.1156
     18 C           6.8671   -2.7675    0.0000 C.3     1  UNL1        0.1253
     19 C           5.1350   -4.7675    0.0000 C.3     1  UNL1        0.1883
     20 C           5.1350   -1.7675    0.0000 C.3     1  UNL1        0.1454
     21 C           5.1350   -5.7675    0.0000 C.3     1  UNL1        0.1341
     22 C           4.2690   -6.2675    0.0000 C.3     1  UNL1        0.1140
     23 C           3.4030   -5.7675    0.0000 C.3     1  UNL1        0.1095
     24 C           6.0010   -1.2675    0.0000 C.3     1  UNL1        0.2308
     25 C           3.4030   -4.7675    0.0000 C.3     1  UNL1        0.0873
     26 C           7.7331   -3.2675    0.0000 C.3     1  UNL1        0.1212
     27 C           2.5369   -4.2675    0.0000 C.3     1  UNL1       -0.0361
     28 C           6.8671    0.2325    0.0000 C.ar    1  UNL1        0.1418
     29 C           6.8711    1.2741    0.0000 C.ar    1  UNL1        0.1058
     30 C           9.4651   -3.2675    0.0000 C.2     1  UNL1        0.3040
     31 C           7.7711   -0.2848    0.0000 C.ar    1  UNL1        0.0226
     32 C           7.7313    1.7841    0.0000 C.ar    1  UNL1        0.1462
     33 C           8.6671    0.2464    0.0000 C.ar    1  UNL1        0.1239
     34 C           5.9993    1.7641    0.0000 C.ar    1  UNL1        0.1966
     35 C           8.6471    1.2878    0.0000 C.ar    1  UNL1        0.0231
     36 C          10.3312   -2.7675    0.0000 C.3     1  UNL1        0.0332
     37 C           5.9878    2.7640    0.0000 C.ar    1  UNL1        0.0288
     38 C           6.8480    3.2740    0.0000 C.ar    1  UNL1        0.1392
     39 C           6.8364    4.2739    0.0000 C.ar    1  UNL1        0.0176
     40 C           5.9646    4.7639    0.0000 C.ar    1  UNL1       -0.0476
     41 C           7.6966    4.7839    0.0000 C.ar    1  UNL1       -0.0476
     42 C           5.9531    5.7638    0.0000 C.ar    1  UNL1       -0.0195
     43 C           7.6850    5.7838    0.0000 C.ar    1  UNL1       -0.0195
     44 C           6.8133    6.2738    0.0000 C.ar    1  UNL1        0.1169
     45 H           6.5380   -3.5775    0.0000 H       1  UNL1        0.0651
     46 H           5.1350   -3.3875    0.0000 H       1  UNL1        0.0648
     47 H           7.4040   -2.4575    0.0000 H       1  UNL1        0.0658
     48 H           5.1350   -4.1475    0.0000 H       1  UNL1        0.0938
     49 H           5.1350   -1.1475    0.0000 H       1  UNL1        0.0683
     50 H           5.1350   -6.3875    0.0000 H       1  UNL1        0.0671
     51 H           3.7320   -6.5775    0.0000 H       1  UNL1        0.0648
     52 H           2.8660   -5.4575    0.0000 H       1  UNL1        0.0646
     53 H           6.5380   -0.9575    0.0000 H       1  UNL1        0.1084
     54 H           3.4030   -4.1475    0.0000 H       1  UNL1        0.0621
     55 H           7.3346   -3.7424    0.0000 H       1  UNL1        0.0724
     56 H           8.1316   -3.7424    0.0000 H       1  UNL1        0.0724
     57 H           2.8469   -3.7306    0.0000 H       1  UNL1        0.0255
     58 H           2.0000   -3.9575    0.0000 H       1  UNL1        0.0255
     59 H           2.2269   -4.8044    0.0000 H       1  UNL1        0.0255
     60 H           3.7320   -2.9575    0.0000 H       1  UNL1        0.2100
     61 H           4.2690   -0.6475    0.0000 H       1  UNL1        0.2102
     62 H           6.0010   -6.8875    0.0000 H       1  UNL1        0.2101
     63 H           3.7320   -7.5775    0.0000 H       1  UNL1        0.2100
     64 H           2.0000   -5.9575    0.0000 H       1  UNL1        0.2100
     65 H           7.7759   -0.9048    0.0000 H       1  UNL1        0.0691
     66 H           9.1767    1.6102    0.0000 H       1  UNL1        0.0691
     67 H          10.6412   -3.3044    0.0000 H       1  UNL1        0.0342
     68 H          10.8681   -2.4575    0.0000 H       1  UNL1        0.0342
     69 H          10.0212   -2.2306    0.0000 H       1  UNL1        0.0342
     70 H           5.4473    3.0678    0.0000 H       1  UNL1        0.0693
     71 H          10.0729    0.0780    0.0000 H       1  UNL1        0.2921
     72 H           5.4313    4.4477    0.0000 H       1  UNL1        0.0626
     73 H           8.2371    4.4801    0.0000 H       1  UNL1        0.0626
     74 H           5.4126    6.0676    0.0000 H       1  UNL1        0.0654
     75 H           8.2183    6.1000    0.0000 H       1  UNL1        0.0654
     76 H           6.2612    7.5775    0.0000 H       1  UNL1        0.2921
@<TRIPOS>BOND
     1    16     1    1
     2    19     1    1
     3     2    18    1
     4     2    24    1
     5     3    19    1
     6     3    25    1
     7    17     4    1
     8     4    60    1
     9    24     5    1
    10     5    28    1
    11    20     6    1
    12     6    61    1
    13    21     7    1
    14     7    62    1
    15    22     8    1
    16     8    63    1
    17    23     9    1
    18     9    64    1
    19    10    26    1
    20    10    30    1
    21    11    32   ar
    22    11    38   ar
    23    12    30    2
    24    13    33    1
    25    13    71    1
    26    14    34    2
    27    15    44    1
    28    15    76    1
    29    16    17    1
    30    16    18    1
    31    16    45    1
    32    17    20    1
    33    17    46    1
    34    18    26    1
    35    18    47    1
    36    19    21    1
    37    19    48    1
    38    20    24    1
    39    20    49    1
    40    21    22    1
    41    21    50    1
    42    22    23    1
    43    22    51    1
    44    23    25    1
    45    23    52    1
    46    24    53    1
    47    25    27    1
    48    25    54    1
    49    26    55    1
    50    26    56    1
    51    27    57    1
    52    27    58    1
    53    27    59    1
    54    28    29   ar
    55    28    31   ar
    56    29    32   ar
    57    29    34   ar
    58    30    36    1
    59    31    33   ar
    60    31    65    1
    61    32    35   ar
    62    33    35   ar
    63    34    37   ar
    64    35    66    1
    65    36    67    1
    66    36    68    1
    67    36    69    1
    68    37    38   ar
    69    37    70    1
    70    38    39    1
    71    39    40   ar
    72    39    41   ar
    73    40    42   ar
    74    40    72    1
    75    41    43   ar
    76    41    73    1
    77    42    44   ar
    78    42    74    1
    79    43    44   ar
    80    43    75    1
