@<TRIPOS>MOLECULE
IMPHY004065
 53 54 0 0 0
SMALL
GASTEIGER

@<TRIPOS>ATOM
      1 O           8.9942   -1.4924    0.0000 O.3     1  UNL1       -0.4812
      2 O           7.2458    1.5422    0.0000 O.3     1  UNL1       -0.5060
      3 C           9.8602   -0.9924    0.0000 C.3     1  UNL1        0.1266
      4 C          10.8602   -0.9924    0.0000 C.3     1  UNL1       -0.0060
      5 C           9.8602    0.0076    0.0000 C.2     1  UNL1       -0.0405
      6 C           8.1282   -0.9924    0.0000 C.ar    1  UNL1        0.1326
      7 C          10.3602   -1.8584    0.0000 C.3     1  UNL1       -0.0212
      8 C          11.3602   -0.1264    0.0000 C.3     1  UNL1       -0.0306
      9 C           8.1282    0.0076    0.0000 C.ar    1  UNL1        0.0579
     10 C           6.3282   -1.0132    0.0000 C.ar    1  UNL1       -0.0404
     11 C           8.9942    0.5076    0.0000 C.2     1  UNL1       -0.0478
     12 C           5.4641   -1.5165    0.0000 C.3     1  UNL1       -0.0275
     13 C           7.2342   -1.5270    0.0000 C.ar    1  UNL1       -0.0159
     14 C           4.5961   -1.0199    0.0000 C.3     1  UNL1       -0.0491
     15 C           7.2342    0.5423    0.0000 C.ar    1  UNL1        0.1277
     16 C           6.3282    0.0284    0.0000 C.ar    1  UNL1       -0.0162
     17 C           3.7320   -1.5232    0.0000 C.3     1  UNL1       -0.0530
     18 C          12.3602   -0.1264    0.0000 C.2     1  UNL1       -0.0851
     19 C           2.8641   -1.0266    0.0000 C.3     1  UNL1       -0.0559
     20 C          12.8602    0.7397    0.0000 C.2     1  UNL1       -0.0796
     21 C           2.0000   -1.5299    0.0000 C.3     1  UNL1       -0.0653
     22 C          13.8602    0.7397    0.0000 C.3     1  UNL1       -0.0440
     23 C          12.3602    1.6057    0.0000 C.3     1  UNL1       -0.0440
     24 H          10.7526   -1.6030    0.0000 H       1  UNL1        0.0310
     25 H          11.4428   -1.2044    0.0000 H       1  UNL1        0.0310
     26 H          10.3972    0.3176    0.0000 H       1  UNL1        0.0611
     27 H           9.8233   -2.1684    0.0000 H       1  UNL1        0.0271
     28 H          10.6702   -2.3953    0.0000 H       1  UNL1        0.0271
     29 H          10.8972   -1.5484    0.0000 H       1  UNL1        0.0271
     30 H          11.4679    0.4842    0.0000 H       1  UNL1        0.0309
     31 H          10.7776    0.0857    0.0000 H       1  UNL1        0.0309
     32 H           8.9942    1.1276    0.0000 H       1  UNL1        0.0624
     33 H           5.0674   -1.9930    0.0000 H       1  UNL1        0.0313
     34 H           5.8644   -1.9899    0.0000 H       1  UNL1        0.0313
     35 H           7.2414   -2.1470    0.0000 H       1  UNL1        0.0657
     36 H           4.9928   -0.5434    0.0000 H       1  UNL1        0.0268
     37 H           4.1958   -0.5465    0.0000 H       1  UNL1        0.0268
     38 H           5.7924    0.3405    0.0000 H       1  UNL1        0.0657
     39 H           3.3353   -1.9997    0.0000 H       1  UNL1        0.0265
     40 H           4.1324   -1.9966    0.0000 H       1  UNL1        0.0265
     41 H          12.6702   -0.6633    0.0000 H       1  UNL1        0.0571
     42 H           3.2608   -0.5501    0.0000 H       1  UNL1        0.0263
     43 H           2.4637   -0.5531    0.0000 H       1  UNL1        0.0263
     44 H           1.6879   -0.9941    0.0000 H       1  UNL1        0.0230
     45 H           1.4643   -1.8420    0.0000 H       1  UNL1        0.0230
     46 H           2.3121   -2.0656    0.0000 H       1  UNL1        0.0230
     47 H           6.7125    1.8584    0.0000 H       1  UNL1        0.2922
     48 H          13.8602    0.1197    0.0000 H       1  UNL1        0.0274
     49 H          14.4802    0.7397    0.0000 H       1  UNL1        0.0274
     50 H          13.8602    1.3597    0.0000 H       1  UNL1        0.0274
     51 H          12.8972    1.9157    0.0000 H       1  UNL1        0.0274
     52 H          12.0502    2.1426    0.0000 H       1  UNL1        0.0274
     53 H          11.8233    1.2957    0.0000 H       1  UNL1        0.0274
@<TRIPOS>BOND
     1     1     3    1
     2     1     6    1
     3     2    15    1
     4     2    47    1
     5     3     4    1
     6     3     5    1
     7     3     7    1
     8     4     8    1
     9     4    24    1
    10     4    25    1
    11     5    11    2
    12     5    26    1
    13     6     9   ar
    14     6    13   ar
    15     7    27    1
    16     7    28    1
    17     7    29    1
    18     8    18    1
    19     8    30    1
    20     8    31    1
    21     9    11    1
    22     9    15   ar
    23    10    12    1
    24    10    13   ar
    25    10    16   ar
    26    11    32    1
    27    12    14    1
    28    12    33    1
    29    12    34    1
    30    13    35    1
    31    14    17    1
    32    14    36    1
    33    14    37    1
    34    15    16   ar
    35    16    38    1
    36    17    19    1
    37    17    39    1
    38    17    40    1
    39    18    20    2
    40    18    41    1
    41    19    21    1
    42    19    42    1
    43    19    43    1
    44    20    22    1
    45    20    23    1
    46    21    44    1
    47    21    45    1
    48    21    46    1
    49    22    48    1
    50    22    49    1
    51    22    50    1
    52    23    51    1
    53    23    52    1
    54    23    53    1
