@<TRIPOS>MOLECULE
IMPHY002758
 31 33 0 0 0
SMALL
GASTEIGER

@<TRIPOS>ATOM
      1 O           6.4144    2.0346    0.0000 O.3     1  UNL1       -0.5058
      2 O           6.4144   -2.0346    0.0000 O.3     1  UNL1       -0.5060
      3 O           4.6660    2.0000    0.0000 O.2     1  UNL1       -0.2864
      4 O           4.6660   -2.0000    0.0000 O.2     1  UNL1       -0.2864
      5 O           2.9176    2.0346    0.0000 O.3     1  UNL1       -0.5060
      6 O           2.9176   -2.0346    0.0000 O.3     1  UNL1       -0.5060
      7 C           5.5321    0.5000    0.0000 C.ar    1  UNL1        0.0783
      8 C           5.5321   -0.5000    0.0000 C.ar    1  UNL1        0.0781
      9 C           3.8000    0.5000    0.0000 C.ar    1  UNL1        0.0780
     10 C           3.8000   -0.5000    0.0000 C.ar    1  UNL1        0.0780
     11 C           4.6660    1.0000    0.0000 C.2     1  UNL1        0.2017
     12 C           4.6660   -1.0000    0.0000 C.2     1  UNL1        0.2017
     13 C           6.4260    1.0347    0.0000 C.ar    1  UNL1        0.1315
     14 C           6.4260   -1.0347    0.0000 C.ar    1  UNL1        0.1288
     15 C           7.3321    0.5208    0.0000 C.ar    1  UNL1       -0.0048
     16 C           2.9061    1.0347    0.0000 C.ar    1  UNL1        0.1286
     17 C           2.9061   -1.0347    0.0000 C.ar    1  UNL1        0.1286
     18 C           7.3321   -0.5208    0.0000 C.ar    1  UNL1       -0.0131
     19 C           2.0000    0.5208    0.0000 C.ar    1  UNL1       -0.0160
     20 C           2.0000   -0.5208    0.0000 C.ar    1  UNL1       -0.0160
     21 C           8.1962    1.0241    0.0000 C.3     1  UNL1       -0.0361
     22 H           7.8678   -0.8329    0.0000 H       1  UNL1        0.0658
     23 H           1.4643    0.8329    0.0000 H       1  UNL1        0.0655
     24 H           1.4643   -0.8329    0.0000 H       1  UNL1        0.0655
     25 H           8.5082    0.4884    0.0000 H       1  UNL1        0.0279
     26 H           8.7319    1.3362    0.0000 H       1  UNL1        0.0279
     27 H           7.8841    1.5599    0.0000 H       1  UNL1        0.0279
     28 H           6.9478    2.3508    0.0000 H       1  UNL1        0.2922
     29 H           6.9478   -2.3508    0.0000 H       1  UNL1        0.2922
     30 H           2.3843    2.3508    0.0000 H       1  UNL1        0.2922
     31 H           2.3843   -2.3508    0.0000 H       1  UNL1        0.2922
@<TRIPOS>BOND
     1     1    13    1
     2     1    28    1
     3     2    14    1
     4     2    29    1
     5     3    11    2
     6     4    12    2
     7     5    16    1
     8     5    30    1
     9     6    17    1
    10     6    31    1
    11     7     8   ar
    12     7    11    1
    13     7    13   ar
    14     8    12    1
    15     8    14   ar
    16     9    10   ar
    17     9    11    1
    18     9    16   ar
    19    10    12    1
    20    10    17   ar
    21    13    15   ar
    22    14    18   ar
    23    15    18   ar
    24    15    21    1
    25    16    19   ar
    26    17    20   ar
    27    18    22    1
    28    19    20   ar
    29    19    23    1
    30    20    24    1
    31    21    25    1
    32    21    26    1
    33    21    27    1
