@<TRIPOS>MOLECULE
IMPHY004484
 24 24 0 0 0
SMALL
GASTEIGER

@<TRIPOS>ATOM
      1 O           4.5981    0.7500    0.0000 O.2     1  UNL1       -0.4941
      2 O           2.8660    1.7500    0.0000 O.2     1  UNL1       -0.4917
      3 N           2.8660   -1.2500    0.0000 N.pl3   1  UNL1       -0.3312
      4 C           3.7320   -0.7500    0.0000 C.3     1  UNL1        0.0723
      5 C           3.7320    0.2500    0.0000 C.2     1  UNL1        0.1557
      6 C           2.8660    0.7500    0.0000 C.2     1  UNL1        0.1600
      7 C           2.0000   -0.7500    0.0000 C.2     1  UNL1       -0.0043
      8 C           2.0000    0.2500    0.0000 C.2     1  UNL1       -0.0029
      9 C           2.8660   -2.2500    0.0000 C.3     1  UNL1        0.0006
     10 C           5.4641    0.2500    0.0000 C.3     1  UNL1        0.0786
     11 C           2.0000    2.2500    0.0000 C.3     1  UNL1        0.0789
     12 H           3.9441   -1.3326    0.0000 H       1  UNL1        0.0545
     13 H           4.3426   -0.6423    0.0000 H       1  UNL1        0.0545
     14 H           1.4631   -1.0600    0.0000 H       1  UNL1        0.0781
     15 H           1.4631    0.5600    0.0000 H       1  UNL1        0.0668
     16 H           2.2460   -2.2500    0.0000 H       1  UNL1        0.0428
     17 H           2.8660   -2.8700    0.0000 H       1  UNL1        0.0428
     18 H           3.4860   -2.2500    0.0000 H       1  UNL1        0.0428
     19 H           5.1541   -0.2869    0.0000 H       1  UNL1        0.0660
     20 H           6.0010   -0.0600    0.0000 H       1  UNL1        0.0660
     21 H           5.7741    0.7869    0.0000 H       1  UNL1        0.0660
     22 H           2.3100    2.7869    0.0000 H       1  UNL1        0.0660
     23 H           1.4631    2.5600    0.0000 H       1  UNL1        0.0660
     24 H           1.6900    1.7131    0.0000 H       1  UNL1        0.0660
@<TRIPOS>BOND
     1     1     5    1
     2     1    10    1
     3     2     6    1
     4     2    11    1
     5     3     4    1
     6     3     7    1
     7     3     9    1
     8     4     5    1
     9     4    12    1
    10     4    13    1
    11     5     6    2
    12     6     8    1
    13     7     8    2
    14     7    14    1
    15     8    15    1
    16     9    16    1
    17     9    17    1
    18     9    18    1
    19    10    19    1
    20    10    20    1
    21    10    21    1
    22    11    22    1
    23    11    23    1
    24    11    24    1
