@<TRIPOS>MOLECULE
IMPHY000935
 90 94 0 0 0
SMALL
GASTEIGER

@<TRIPOS>ATOM
      1 O           2.8990    4.5497    0.0000 O.3     1  UNL1       -0.3592
      2 O           6.3402    1.6207    0.0000 O.3     1  UNL1       -0.4572
      3 O           6.5580    4.6890    0.0000 O.3     1  UNL1       -0.3872
      4 O           4.6326    6.7937    0.0000 O.3     1  UNL1       -0.3773
      5 O           3.8222    6.9128    0.0000 O.3     1  UNL1       -0.3854
      6 O           2.4545    6.4997    0.0000 O.3     1  UNL1       -0.3920
      7 O           5.4561    7.7769    0.0000 O.2     1  UNL1       -0.2892
      8 O           5.3535    0.1972    0.0000 O.2     1  UNL1       -0.2508
      9 C           4.6622    2.7838    0.0000 C.3     1  UNL1        0.0162
     10 C           5.5183    2.1904    0.0000 C.3     1  UNL1        0.1231
     11 C           4.5761    1.7453    0.0000 C.3     1  UNL1        0.0122
     12 C           4.7561    3.8212    0.0000 C.3     1  UNL1        0.0250
     13 C           5.6570    4.2551    0.0000 C.3     1  UNL1        0.0838
     14 C           3.8551    4.2551    0.0000 C.3     1  UNL1        0.0992
     15 C           6.4568    2.6424    0.0000 C.3     1  UNL1       -0.0068
     16 C           6.5266    3.6816    0.0000 C.3     1  UNL1       -0.0103
     17 C           3.6326    5.2300    0.0000 C.3     1  UNL1        0.1479
     18 C           5.8796    5.2300    0.0000 C.3     1  UNL1        0.0458
     19 C           3.5795    1.8277    0.0000 C.3     1  UNL1       -0.0558
     20 C           5.0030    0.8410    0.0000 C.3     1  UNL1       -0.0558
     21 C           5.2561    6.0118    0.0000 C.3     1  UNL1        0.1649
     22 C           4.2561    6.0118    0.0000 C.3     1  UNL1        0.1252
     23 C           7.5246    3.6184    0.0000 C.3     1  UNL1       -0.0596
     24 C           3.4101    6.2049    0.0000 C.3     1  UNL1        0.0783
     25 C           6.8094    5.5817    0.0000 C.2     1  UNL1       -0.0687
     26 C           5.8059    6.8400    0.0000 C.2     1  UNL1        0.1933
     27 C           6.7639    6.5748    0.0000 C.2     1  UNL1       -0.0085
     28 C           6.2578    0.6241    0.0000 C.2     1  UNL1        0.3076
     29 C           7.5457    7.1982    0.0000 C.3     1  UNL1       -0.0366
     30 C           7.0796    0.0545    0.0000 C.3     1  UNL1        0.0450
     31 C           6.9972   -0.9421    0.0000 C.3     1  UNL1       -0.0430
     32 C           7.8191   -1.5118    0.0000 C.3     1  UNL1       -0.0526
     33 C           7.7367   -2.5084    0.0000 C.3     1  UNL1       -0.0530
     34 C           8.5586   -3.0781    0.0000 C.3     1  UNL1       -0.0531
     35 C           8.4761   -4.0747    0.0000 C.3     1  UNL1       -0.0531
     36 C           9.2980   -4.6444    0.0000 C.3     1  UNL1       -0.0531
     37 C           9.2156   -5.6409    0.0000 C.3     1  UNL1       -0.0531
     38 C          10.0375   -6.2106    0.0000 C.3     1  UNL1       -0.0533
     39 C           9.9550   -7.2072    0.0000 C.3     1  UNL1       -0.0559
     40 C          10.7769   -7.7769    0.0000 C.3     1  UNL1       -0.0653
     41 H           3.8154    2.8572    0.0000 H       1  UNL1        0.0350
     42 H           4.0167    3.4019    0.0000 H       1  UNL1        0.0359
     43 H           3.5447    3.4638    0.0000 H       1  UNL1        0.0630
     44 H           6.6262    2.0460    0.0000 H       1  UNL1        0.0307
     45 H           7.0734    2.7073    0.0000 H       1  UNL1        0.0307
     46 H           6.7235    4.2696    0.0000 H       1  UNL1        0.0327
     47 H           6.5204    4.6716    0.0000 H       1  UNL1        0.0405
     48 H           3.6306    2.4456    0.0000 H       1  UNL1        0.0236
     49 H           2.9616    1.8788    0.0000 H       1  UNL1        0.0236
     50 H           3.5284    1.2098    0.0000 H       1  UNL1        0.0236
     51 H           4.4424    0.5763    0.0000 H       1  UNL1        0.0236
     52 H           5.2677    0.2803    0.0000 H       1  UNL1        0.0236
     53 H           5.5637    1.1057    0.0000 H       1  UNL1        0.0236
     54 H           4.5859    6.5368    0.0000 H       1  UNL1        0.0657
     55 H           7.4854    2.9997    0.0000 H       1  UNL1        0.0233
     56 H           8.1434    3.5793    0.0000 H       1  UNL1        0.0233
     57 H           7.5638    4.2372    0.0000 H       1  UNL1        0.0233
     58 H           4.0293    6.2358    0.0000 H       1  UNL1        0.0588
     59 H           3.4872    6.8201    0.0000 H       1  UNL1        0.0588
     60 H           7.1763    4.6426    0.0000 H       1  UNL1        0.2102
     61 H           7.3274    5.2411    0.0000 H       1  UNL1        0.0580
     62 H           4.8591    7.3708    0.0000 H       1  UNL1        0.2109
     63 H           3.2039    6.9591    0.0000 H       1  UNL1        0.2100
     64 H           2.0000    6.0780    0.0000 H       1  UNL1        0.2095
     65 H           7.9323    6.7135    0.0000 H       1  UNL1        0.0279
     66 H           8.0305    7.5848    0.0000 H       1  UNL1        0.0279
     67 H           7.1592    7.6830    0.0000 H       1  UNL1        0.0279
     68 H           7.6793   -0.1031    0.0000 H       1  UNL1        0.0377
     69 H           7.3390    0.6176    0.0000 H       1  UNL1        0.0377
     70 H           6.3976   -0.7845    0.0000 H       1  UNL1        0.0270
     71 H           6.7379   -1.5053    0.0000 H       1  UNL1        0.0270
     72 H           8.4187   -1.6694    0.0000 H       1  UNL1        0.0265
     73 H           8.0784   -0.9487    0.0000 H       1  UNL1        0.0265
     74 H           7.1370   -2.3508    0.0000 H       1  UNL1        0.0265
     75 H           7.4773   -3.0715    0.0000 H       1  UNL1        0.0265
     76 H           9.1582   -3.2357    0.0000 H       1  UNL1        0.0265
     77 H           8.8179   -2.5149    0.0000 H       1  UNL1        0.0265
     78 H           7.8765   -3.9171    0.0000 H       1  UNL1        0.0265
     79 H           8.2168   -4.6378    0.0000 H       1  UNL1        0.0265
     80 H           9.8976   -4.8020    0.0000 H       1  UNL1        0.0265
     81 H           9.5574   -4.0812    0.0000 H       1  UNL1        0.0265
     82 H           8.6160   -5.4833    0.0000 H       1  UNL1        0.0265
     83 H           8.9562   -6.2041    0.0000 H       1  UNL1        0.0265
     84 H          10.6371   -6.3682    0.0000 H       1  UNL1        0.0265
     85 H          10.2968   -5.6475    0.0000 H       1  UNL1        0.0265
     86 H           9.3554   -7.0496    0.0000 H       1  UNL1        0.0263
     87 H           9.6957   -7.7704    0.0000 H       1  UNL1        0.0263
     88 H          10.4237   -8.2864    0.0000 H       1  UNL1        0.0230
     89 H          11.2865   -8.1301    0.0000 H       1  UNL1        0.0230
     90 H          11.1301   -7.2673    0.0000 H       1  UNL1        0.0230
@<TRIPOS>BOND
     1     1    14    1
     2     1    17    1
     3    10     2    1
     4     2    28    1
     5    13     3    1
     6     3    60    1
     7    21     4    1
     8     4    62    1
     9    22     5    1
    10     5    63    1
    11     6    24    1
    12     6    64    1
    13     7    26    2
    14     8    28    2
    15     9    10    1
    16     9    11    1
    17     9    12    1
    18     9    41    1
    19    10    11    1
    20    10    15    1
    21    11    19    1
    22    11    20    1
    23    12    13    1
    24    12    14    1
    25    12    42    1
    26    13    16    1
    27    13    18    1
    28    14    17    1
    29    14    43    1
    30    15    16    1
    31    15    44    1
    32    15    45    1
    33    16    23    1
    34    16    46    1
    35    17    22    1
    36    17    24    1
    37    18    21    1
    38    18    25    1
    39    18    47    1
    40    19    48    1
    41    19    49    1
    42    19    50    1
    43    20    51    1
    44    20    52    1
    45    20    53    1
    46    21    22    1
    47    21    26    1
    48    22    54    1
    49    23    55    1
    50    23    56    1
    51    23    57    1
    52    24    58    1
    53    24    59    1
    54    25    27    2
    55    25    61    1
    56    26    27    1
    57    27    29    1
    58    28    30    1
    59    29    65    1
    60    29    66    1
    61    29    67    1
    62    30    31    1
    63    30    68    1
    64    30    69    1
    65    31    32    1
    66    31    70    1
    67    31    71    1
    68    32    33    1
    69    32    72    1
    70    32    73    1
    71    33    34    1
    72    33    74    1
    73    33    75    1
    74    34    35    1
    75    34    76    1
    76    34    77    1
    77    35    36    1
    78    35    78    1
    79    35    79    1
    80    36    37    1
    81    36    80    1
    82    36    81    1
    83    37    38    1
    84    37    82    1
    85    37    83    1
    86    38    39    1
    87    38    84    1
    88    38    85    1
    89    39    40    1
    90    39    86    1
    91    39    87    1
    92    40    88    1
    93    40    89    1
    94    40    90    1
