@<TRIPOS>MOLECULE
IMPHY000285
 17 17 0 0 0
SMALL
GASTEIGER

@<TRIPOS>ATOM
      1 O           3.7601   -0.7284    0.0000 O.3     1  UNL1       -0.4515
      2 O           5.7281   -1.4278    0.0000 O.3     1  UNL1       -0.3910
      3 O           2.0000   -0.4497    0.0000 O.2     1  UNL1       -0.2456
      4 C           4.5691   -0.1407    0.0000 C.3     1  UNL1        0.1476
      5 C           4.2601    0.8104    0.0000 C.2     1  UNL1       -0.0237
      6 C           5.5202   -0.4497    0.0000 C.3     1  UNL1        0.0851
      7 C           3.2601    0.8104    0.0000 C.2     1  UNL1        0.0250
      8 C           4.8479    1.6194    0.0000 C.3     1  UNL1       -0.0397
      9 C           2.9511   -0.1407    0.0000 C.2     1  UNL1        0.3326
     10 H           4.6661   -0.7530    0.0000 H       1  UNL1        0.0805
     11 H           6.1398   -0.4280    0.0000 H       1  UNL1        0.0597
     12 H           5.6064    0.1643    0.0000 H       1  UNL1        0.0597
     13 H           2.8956    1.3120    0.0000 H       1  UNL1        0.0689
     14 H           5.3494    1.2550    0.0000 H       1  UNL1        0.0276
     15 H           5.2123    2.1210    0.0000 H       1  UNL1        0.0276
     16 H           4.3463    1.9838    0.0000 H       1  UNL1        0.0276
     17 H           6.3177   -1.6194    0.0000 H       1  UNL1        0.2096
@<TRIPOS>BOND
     1     1     4    1
     2     1     9    1
     3     2     6    1
     4     2    17    1
     5     3     9    2
     6     4     5    1
     7     4     6    1
     8     4    10    1
     9     5     7    2
    10     5     8    1
    11     6    11    1
    12     6    12    1
    13     7     9    1
    14     7    13    1
    15     8    14    1
    16     8    15    1
    17     8    16    1
