@<TRIPOS>MOLECULE
IMPHY002106
 53 55 0 0 0
SMALL
GASTEIGER

@<TRIPOS>ATOM
      1 O           6.3580   -0.2693    0.0000 O.3     1  UNL1       -0.4792
      2 O           4.5981    2.7654    0.0000 O.3     1  UNL1       -0.4905
      3 O           4.5981   -1.2346    0.0000 O.3     1  UNL1       -0.4884
      4 O           6.3465    2.8000    0.0000 O.2     1  UNL1       -0.2917
      5 O           2.8660    1.7654    0.0000 O.3     1  UNL1       -0.4884
      6 O           2.8660   -0.2346    0.0000 O.3     1  UNL1       -0.4883
      7 O           8.9846   -2.7621    0.0000 O.3     1  UNL1       -0.4914
      8 O          10.7205   -1.7688    0.0000 O.3     1  UNL1       -0.4915
      9 C           7.2641    0.2446    0.0000 C.3     1  UNL1        0.1325
     10 C           7.2641    1.2862    0.0000 C.3     1  UNL1        0.0520
     11 C           5.4641    1.2654    0.0000 C.ar    1  UNL1        0.1082
     12 C           5.4641    0.2654    0.0000 C.ar    1  UNL1        0.1807
     13 C           8.1282   -0.2587    0.0000 C.ar    1  UNL1       -0.0033
     14 C           6.3580    1.8001    0.0000 C.2     1  UNL1        0.1743
     15 C           4.5981    1.7654    0.0000 C.ar    1  UNL1        0.1794
     16 C           4.5981   -0.2346    0.0000 C.ar    1  UNL1        0.2082
     17 C           3.7320    1.2654    0.0000 C.ar    1  UNL1        0.2082
     18 C           3.7320    0.2654    0.0000 C.ar    1  UNL1        0.2110
     19 C           8.1244   -1.2587    0.0000 C.ar    1  UNL1       -0.0096
     20 C           8.9962    0.2379    0.0000 C.ar    1  UNL1       -0.0514
     21 C           8.9884   -1.7621    0.0000 C.ar    1  UNL1        0.1619
     22 C           9.8602   -0.2654    0.0000 C.ar    1  UNL1       -0.0159
     23 C           9.8564   -1.2654    0.0000 C.ar    1  UNL1        0.1615
     24 C           3.7320    3.2654    0.0000 C.3     1  UNL1        0.0790
     25 C           3.7320   -1.7346    0.0000 C.3     1  UNL1        0.0791
     26 C           2.0000    1.2654    0.0000 C.3     1  UNL1        0.0791
     27 C           2.0000    0.2654    0.0000 C.3     1  UNL1        0.0791
     28 C           9.8487   -3.2654    0.0000 C.3     1  UNL1        0.0790
     29 C          11.5884   -1.2721    0.0000 C.3     1  UNL1        0.0790
     30 H           7.2605   -0.3754    0.0000 H       1  UNL1        0.0789
     31 H           7.8750    1.1801    0.0000 H       1  UNL1        0.0385
     32 H           7.4732    1.8699    0.0000 H       1  UNL1        0.0385
     33 H           7.5862   -1.5667    0.0000 H       1  UNL1        0.0659
     34 H           8.9985    0.8579    0.0000 H       1  UNL1        0.0623
     35 H          10.3984    0.0425    0.0000 H       1  UNL1        0.0655
     36 H           4.0420    3.8023    0.0000 H       1  UNL1        0.0660
     37 H           3.1951    3.5754    0.0000 H       1  UNL1        0.0660
     38 H           3.4220    2.7285    0.0000 H       1  UNL1        0.0660
     39 H           3.4220   -1.1977    0.0000 H       1  UNL1        0.0660
     40 H           3.1951   -2.0446    0.0000 H       1  UNL1        0.0660
     41 H           4.0420   -2.2715    0.0000 H       1  UNL1        0.0660
     42 H           1.6900    1.8023    0.0000 H       1  UNL1        0.0660
     43 H           1.4631    0.9554    0.0000 H       1  UNL1        0.0660
     44 H           2.3100    0.7285    0.0000 H       1  UNL1        0.0660
     45 H           2.3100    0.8023    0.0000 H       1  UNL1        0.0660
     46 H           1.4631    0.5754    0.0000 H       1  UNL1        0.0660
     47 H           1.6900   -0.2715    0.0000 H       1  UNL1        0.0660
     48 H           9.5366   -3.8011    0.0000 H       1  UNL1        0.0660
     49 H          10.3844   -3.5775    0.0000 H       1  UNL1        0.0660
     50 H          10.1607   -2.7297    0.0000 H       1  UNL1        0.0660
     51 H          11.8964   -1.8102    0.0000 H       1  UNL1        0.0660
     52 H          12.1266   -0.9642    0.0000 H       1  UNL1        0.0660
     53 H          11.2805   -0.7340    0.0000 H       1  UNL1        0.0660
@<TRIPOS>BOND
     1     1     9    1
     2     1    12    1
     3     2    15    1
     4     2    24    1
     5     3    16    1
     6     3    25    1
     7     4    14    2
     8     5    17    1
     9     5    26    1
    10     6    18    1
    11     6    27    1
    12     7    21    1
    13     7    28    1
    14     8    23    1
    15     8    29    1
    16     9    10    1
    17     9    13    1
    18     9    30    1
    19    10    14    1
    20    10    31    1
    21    10    32    1
    22    11    12   ar
    23    11    14    1
    24    11    15   ar
    25    12    16   ar
    26    13    19   ar
    27    13    20   ar
    28    15    17   ar
    29    16    18   ar
    30    17    18   ar
    31    19    21   ar
    32    19    33    1
    33    20    22   ar
    34    20    34    1
    35    21    23   ar
    36    22    23   ar
    37    22    35    1
    38    24    36    1
    39    24    37    1
    40    24    38    1
    41    25    39    1
    42    25    40    1
    43    25    41    1
    44    26    42    1
    45    26    43    1
    46    26    44    1
    47    27    45    1
    48    27    46    1
    49    27    47    1
    50    28    48    1
    51    28    49    1
    52    28    50    1
    53    29    51    1
    54    29    52    1
    55    29    53    1
