@<TRIPOS>MOLECULE
IMPHY002568
 30 32 0 0 0
SMALL
GASTEIGER

@<TRIPOS>ATOM
      1 O           4.6660   -0.7500    0.0000 O.3     1  UNL1       -0.4805
      2 O           6.3981    1.2500    0.0000 O.3     1  UNL1       -0.3798
      3 O           4.6660    2.2500    0.0000 O.2     1  UNL1       -0.2890
      4 C           5.5321   -0.2500    0.0000 C.3     1  UNL1        0.1581
      5 C           5.5321    0.7500    0.0000 C.3     1  UNL1        0.1583
      6 C           6.3981   -0.7500    0.0000 C.ar    1  UNL1       -0.0044
      7 C           4.6660    1.2500    0.0000 C.2     1  UNL1        0.1988
      8 C           3.8000    0.7500    0.0000 C.ar    1  UNL1        0.0618
      9 C           3.8000   -0.2500    0.0000 C.ar    1  UNL1        0.1321
     10 C           6.3981   -1.7500    0.0000 C.ar    1  UNL1       -0.0550
     11 C           7.2641   -0.2500    0.0000 C.ar    1  UNL1       -0.0550
     12 C           2.9061    1.2847    0.0000 C.ar    1  UNL1       -0.0476
     13 C           2.9061   -0.7847    0.0000 C.ar    1  UNL1       -0.0192
     14 C           2.0000    0.7708    0.0000 C.ar    1  UNL1       -0.0609
     15 C           2.0000   -0.2708    0.0000 C.ar    1  UNL1       -0.0583
     16 C           7.2641   -2.2500    0.0000 C.ar    1  UNL1       -0.0614
     17 C           8.1301   -0.7500    0.0000 C.ar    1  UNL1       -0.0614
     18 C           8.1301   -1.7500    0.0000 C.ar    1  UNL1       -0.0617
     19 H           5.5321   -0.8700    0.0000 H       1  UNL1        0.0815
     20 H           5.5321    1.3700    0.0000 H       1  UNL1        0.0718
     21 H           5.8612   -2.0600    0.0000 H       1  UNL1        0.0621
     22 H           7.2641    0.3700    0.0000 H       1  UNL1        0.0621
     23 H           2.9132    1.9046    0.0000 H       1  UNL1        0.0626
     24 H           2.9132   -1.4046    0.0000 H       1  UNL1        0.0654
     25 H           6.3981    1.8700    0.0000 H       1  UNL1        0.2105
     26 H           1.4643    1.0829    0.0000 H       1  UNL1        0.0618
     27 H           1.4643   -0.5829    0.0000 H       1  UNL1        0.0619
     28 H           7.2641   -2.8700    0.0000 H       1  UNL1        0.0618
     29 H           8.6671   -0.4400    0.0000 H       1  UNL1        0.0618
     30 H           8.6671   -2.0600    0.0000 H       1  UNL1        0.0618
@<TRIPOS>BOND
     1     1     4    1
     2     1     9    1
     3     2     5    1
     4     2    25    1
     5     3     7    2
     6     4     5    1
     7     4     6    1
     8     4    19    1
     9     5     7    1
    10     5    20    1
    11     6    10   ar
    12     6    11   ar
    13     7     8    1
    14     8     9   ar
    15     8    12   ar
    16     9    13   ar
    17    10    16   ar
    18    10    21    1
    19    11    17   ar
    20    11    22    1
    21    12    14   ar
    22    12    23    1
    23    13    15   ar
    24    13    24    1
    25    14    15   ar
    26    14    26    1
    27    15    27    1
    28    16    18   ar
    29    16    28    1
    30    17    18   ar
    31    17    29    1
    32    18    30    1
