@<TRIPOS>MOLECULE
IMPHY007092
 8 8 0 0 0
SMALL
GASTEIGER

@<TRIPOS>ATOM
      1 S           3.7601   -0.7694    0.0000 S.2     1  UNL1       -0.0448
      2 S           4.5691   -0.1816    0.0000 S.2     1  UNL1       -0.0593
      3 S           2.0000   -0.4907    0.0000 S.2     1  UNL1       -0.0438
      4 C           3.2601    0.7694    0.0000 C.ar    1  UNL1       -0.0333
      5 C           2.9511   -0.1816    0.0000 C.ar    1  UNL1        0.0633
      6 C           4.2601    0.7694    0.0000 C.ar    1  UNL1       -0.0159
      7 H           2.8956    1.2710    0.0000 H       1  UNL1        0.0639
      8 H           4.6245    1.2710    0.0000 H       1  UNL1        0.0699
@<TRIPOS>BOND
     1     1     2   ar
     2     1     5   ar
     3     2     6   ar
     4     3     5    2
     5     4     5   ar
     6     4     6   ar
     7     4     7    1
     8     6     8    1
