@<TRIPOS>MOLECULE
IMPHY013315
 74 79 0 0 0
SMALL
GASTEIGER

@<TRIPOS>ATOM
      1 O           6.8383   -1.0888    0.0000 O.3     1  UNL1       -0.3633
      2 O          10.2824   -1.5776    0.0000 O.3     1  UNL1       -0.4602
      3 O           3.8185   -0.9120    0.0000 O.3     1  UNL1       -0.4559
      4 O           7.9806    3.0302    0.0000 O.2     1  UNL1       -0.2963
      5 O           4.3137   -2.6510    0.0000 O.2     1  UNL1       -0.2508
      6 O          12.7368    2.6089    0.0000 O.3     1  UNL1       -0.4679
      7 O          12.6461    0.8793    0.0000 O.2     1  UNL1       -0.2509
      8 O           2.0000    1.6181    0.0000 O.2     1  UNL1       -0.4706
      9 O          12.0121   -1.4870    0.0000 O.2     1  UNL1       -0.2512
     10 C           6.9084   -0.0908    0.0000 C.3     1  UNL1        0.1044
     11 C           7.1840    0.8705    0.0000 C.3     1  UNL1        0.0033
     12 C           7.7374   -0.6500    0.0000 C.3     1  UNL1        0.1019
     13 C           9.2172    1.1816    0.0000 C.3     1  UNL1        0.0361
     14 C           5.9017   -0.3584    0.0000 C.3     1  UNL1        0.0100
     15 C           8.9584    0.2157    0.0000 C.3     1  UNL1        0.0844
     16 C           5.1723    0.3853    0.0000 C.3     1  UNL1        0.0153
     17 C          10.6489    0.9839    0.0000 C.3     1  UNL1       -0.0100
     18 C           6.4720    1.6308    0.0000 C.3     1  UNL1       -0.0460
     19 C           8.4806    2.1642    0.0000 C.2     1  UNL1        0.1490
     20 C          11.0072    0.0503    0.0000 C.3     1  UNL1        0.0071
     21 C          10.2301   -0.5790    0.0000 C.3     1  UNL1        0.1204
     22 C           5.4594    1.3866    0.0000 C.3     1  UNL1       -0.0432
     23 C           5.6268   -1.4080    0.0000 C.3     1  UNL1        0.0511
     24 C           9.4761    2.1475    0.0000 C.3     1  UNL1       -0.0522
     25 C           4.1176    0.1310    0.0000 C.3     1  UNL1        0.1366
     26 C          11.1935    1.8226    0.0000 C.3     1  UNL1        0.0492
     27 C           4.4722    1.0993    0.0000 C.3     1  UNL1       -0.0555
     28 C          11.9732    0.3092    0.0000 C.3     1  UNL1       -0.0561
     29 C          11.7144   -0.6568    0.0000 C.3     1  UNL1       -0.0561
     30 C           4.5782   -1.6866    0.0000 C.2     1  UNL1        0.3081
     31 C           3.4257    0.8530    0.0000 C.ar    1  UNL1        0.0309
     32 C          12.1921    1.7703    0.0000 C.2     1  UNL1        0.3071
     33 C          11.1734   -2.0316    0.0000 C.2     1  UNL1        0.3042
     34 C           3.6031    1.8371    0.0000 C.ar    1  UNL1       -0.0172
     35 C           2.4349    0.7176    0.0000 C.ar    1  UNL1        0.0984
     36 C          11.2258   -3.0302    0.0000 C.3     1  UNL1        0.0332
     37 C           2.7220    2.3100    0.0000 C.ar    1  UNL1        0.0921
     38 C          13.7354    2.5566    0.0000 C.3     1  UNL1        0.0817
     39 H           7.4183    1.6875    0.0000 H       1  UNL1        0.0339
     40 H           8.4421   -1.1253    0.0000 H       1  UNL1        0.0633
     41 H           6.5038   -0.9583    0.0000 H       1  UNL1        0.0341
     42 H           8.7384   -0.6054    0.0000 H       1  UNL1        0.0441
     43 H          11.2655    0.9191    0.0000 H       1  UNL1        0.0322
     44 H           6.9905    1.9709    0.0000 H       1  UNL1        0.0269
     45 H           6.2257    2.1998    0.0000 H       1  UNL1        0.0269
     46 H          10.7965   -0.8312    0.0000 H       1  UNL1        0.0747
     47 H           5.4194    2.0053    0.0000 H       1  UNL1        0.0272
     48 H           4.8430    1.4530    0.0000 H       1  UNL1        0.0272
     49 H           5.6812   -2.0256    0.0000 H       1  UNL1        0.0381
     50 H           6.2446   -1.4601    0.0000 H       1  UNL1        0.0381
     51 H          10.0749    1.9870    0.0000 H       1  UNL1        0.0239
     52 H           9.6365    2.7464    0.0000 H       1  UNL1        0.0239
     53 H           8.8772    2.3080    0.0000 H       1  UNL1        0.0239
     54 H           3.5157   -0.0179    0.0000 H       1  UNL1        0.0792
     55 H          11.3330    2.4267    0.0000 H       1  UNL1        0.0381
     56 H          10.6228    2.0648    0.0000 H       1  UNL1        0.0381
     57 H           4.9148    1.5334    0.0000 H       1  UNL1        0.0236
     58 H           4.0380    1.5420    0.0000 H       1  UNL1        0.0236
     59 H           4.0295    0.6652    0.0000 H       1  UNL1        0.0236
     60 H          12.1336   -0.2897    0.0000 H       1  UNL1        0.0236
     61 H          12.5720    0.4696    0.0000 H       1  UNL1        0.0236
     62 H          11.8127    0.9080    0.0000 H       1  UNL1        0.0236
     63 H          11.2759   -1.0952    0.0000 H       1  UNL1        0.0236
     64 H          12.1528   -1.0952    0.0000 H       1  UNL1        0.0236
     65 H          12.1528   -0.2184    0.0000 H       1  UNL1        0.0236
     66 H           4.1614    2.1068    0.0000 H       1  UNL1        0.0653
     67 H           2.1417    0.1713    0.0000 H       1  UNL1        0.1033
     68 H          10.6066   -3.0627    0.0000 H       1  UNL1        0.0342
     69 H          11.2582   -3.6494    0.0000 H       1  UNL1        0.0342
     70 H          11.8449   -2.9978    0.0000 H       1  UNL1        0.0342
     71 H           2.6381    2.9243    0.0000 H       1  UNL1        0.1029
     72 H          13.7030    1.9374    0.0000 H       1  UNL1        0.0661
     73 H          14.3546    2.5241    0.0000 H       1  UNL1        0.0661
     74 H          13.7679    3.1757    0.0000 H       1  UNL1        0.0661
@<TRIPOS>BOND
     1    10     1    1
     2     1    12    1
     3    21     2    1
     4     2    33    1
     5     3    25    1
     6     3    30    1
     7     4    19    2
     8     5    30    2
     9     6    32    1
    10     6    38    1
    11     7    32    2
    12     8    35   ar
    13     8    37   ar
    14     9    33    2
    15    10    11    1
    16    10    12    1
    17    10    14    1
    18    11    13    1
    19    11    18    1
    20    11    39    1
    21    12    15    1
    22    12    40    1
    23    13    17    1
    24    13    19    1
    25    13    24    1
    26    14    16    1
    27    14    23    1
    28    14    41    1
    29    15    19    1
    30    15    21    1
    31    15    42    1
    32    16    22    1
    33    16    25    1
    34    16    27    1
    35    17    20    1
    36    17    26    1
    37    17    43    1
    38    18    22    1
    39    18    44    1
    40    18    45    1
    41    20    21    1
    42    20    28    1
    43    20    29    1
    44    21    46    1
    45    22    47    1
    46    22    48    1
    47    23    30    1
    48    23    49    1
    49    23    50    1
    50    24    51    1
    51    24    52    1
    52    24    53    1
    53    25    31    1
    54    25    54    1
    55    26    32    1
    56    26    55    1
    57    26    56    1
    58    27    57    1
    59    27    58    1
    60    27    59    1
    61    28    60    1
    62    28    61    1
    63    28    62    1
    64    29    63    1
    65    29    64    1
    66    29    65    1
    67    31    34   ar
    68    31    35   ar
    69    33    36    1
    70    34    37   ar
    71    34    66    1
    72    35    67    1
    73    36    68    1
    74    36    69    1
    75    36    70    1
    76    37    71    1
    77    38    72    1
    78    38    73    1
    79    38    74    1
