@<TRIPOS>MOLECULE
IMPHY004937
 32 34 0 0 0
SMALL
GASTEIGER

@<TRIPOS>ATOM
      1 O           2.8641   -0.1372    0.0000 O.2     1  UNL1       -0.4270
      2 O           5.5301    1.3419    0.0000 O.3     1  UNL1       -0.5052
      3 O           7.2785    1.3765    0.0000 O.3     1  UNL1       -0.5059
      4 O           9.0602   -1.6822    0.0000 O.3     1  UNL1       -0.4950
      5 O           3.7817    1.3765    0.0000 O.2     1  UNL1       -0.2444
      6 C           6.3961   -0.1581    0.0000 C.ar    1  UNL1        0.0660
      7 C           6.3961   -1.1581    0.0000 C.ar    1  UNL1       -0.0068
      8 C           4.6641   -1.1581    0.0000 C.ar    1  UNL1       -0.0038
      9 C           4.6641   -0.1581    0.0000 C.ar    1  UNL1        0.1086
     10 C           5.5301    0.3419    0.0000 C.ar    1  UNL1        0.1426
     11 C           5.5301   -1.6581    0.0000 C.ar    1  UNL1       -0.0455
     12 C           7.2901    0.3766    0.0000 C.ar    1  UNL1        0.1315
     13 C           7.2901   -1.6927    0.0000 C.ar    1  UNL1       -0.0119
     14 C           3.7702   -1.6927    0.0000 C.ar    1  UNL1       -0.0157
     15 C           8.1962   -1.1789    0.0000 C.ar    1  UNL1        0.1242
     16 C           3.7702    0.3766    0.0000 C.ar    1  UNL1        0.3483
     17 C           8.1962   -0.1372    0.0000 C.ar    1  UNL1        0.0223
     18 C           2.8641   -1.1789    0.0000 C.ar    1  UNL1        0.1067
     19 C           2.0000   -1.6822    0.0000 C.3     1  UNL1       -0.0062
     20 C           9.9282   -1.1856    0.0000 C.3     1  UNL1        0.0788
     21 H           5.5301   -2.2781    0.0000 H       1  UNL1        0.0630
     22 H           7.2829   -2.3127    0.0000 H       1  UNL1        0.0660
     23 H           3.7773   -2.3127    0.0000 H       1  UNL1        0.0657
     24 H           8.7319    0.1748    0.0000 H       1  UNL1        0.0691
     25 H           1.6879   -1.1465    0.0000 H       1  UNL1        0.0308
     26 H           1.4643   -1.9943    0.0000 H       1  UNL1        0.0308
     27 H           2.3121   -2.2180    0.0000 H       1  UNL1        0.0308
     28 H           4.9932    1.6519    0.0000 H       1  UNL1        0.2922
     29 H           7.8118    1.6927    0.0000 H       1  UNL1        0.2922
     30 H          10.2361   -1.7237    0.0000 H       1  UNL1        0.0660
     31 H          10.4663   -0.8776    0.0000 H       1  UNL1        0.0660
     32 H           9.6203   -0.6474    0.0000 H       1  UNL1        0.0660
@<TRIPOS>BOND
     1     1    16   ar
     2     1    18   ar
     3     2    10    1
     4     2    28    1
     5     3    12    1
     6     3    29    1
     7     4    15    1
     8     4    20    1
     9     5    16    2
    10     6     7   ar
    11     6    10   ar
    12     6    12   ar
    13     7    11   ar
    14     7    13   ar
    15     8     9   ar
    16     8    11   ar
    17     8    14   ar
    18     9    10   ar
    19     9    16   ar
    20    11    21    1
    21    12    17   ar
    22    13    15   ar
    23    13    22    1
    24    14    18   ar
    25    14    23    1
    26    15    17   ar
    27    17    24    1
    28    18    19    1
    29    19    25    1
    30    19    26    1
    31    19    27    1
    32    20    30    1
    33    20    31    1
    34    20    32    1
