@<TRIPOS>MOLECULE
IMPHY016637
 40 42 0 0 0
SMALL
GASTEIGER

@<TRIPOS>ATOM
      1 O           3.1452    2.3474    0.0000 O.2     1  UNL1       -0.2962
      2 C           4.0791   -0.7443    0.0000 C.3     1  UNL1       -0.0220
      3 C           3.1781   -0.3104    0.0000 C.3     1  UNL1       -0.0232
      4 C           4.5791    1.4464    0.0000 C.3     1  UNL1        0.0273
      5 C           3.9722    0.4325    0.0000 C.3     1  UNL1       -0.0347
      6 C           3.9431   -1.7290    0.0000 C.3     1  UNL1       -0.0379
      7 C           2.9556    0.6645    0.0000 C.3     1  UNL1        0.0272
      8 C           4.9800   -0.3104    0.0000 C.3     1  UNL1       -0.0459
      9 C           5.2025    0.6645    0.0000 C.3     1  UNL1       -0.0404
     10 C           2.4930   -1.0307    0.0000 C.3     1  UNL1       -0.0486
     11 C           2.9648   -1.9056    0.0000 C.3     1  UNL1       -0.0497
     12 C           3.5791    1.4464    0.0000 C.2     1  UNL1        0.1450
     13 C           4.8016    2.4213    0.0000 C.3     1  UNL1       -0.0528
     14 C           4.6647   -2.4213    0.0000 C.3     1  UNL1       -0.0619
     15 C           2.2225    1.3447    0.0000 C.3     1  UNL1       -0.0528
     16 C           2.0000    0.3698    0.0000 C.3     1  UNL1       -0.0528
     17 H           2.5802   -0.1462    0.0000 H       1  UNL1        0.0315
     18 H           3.5644    0.8995    0.0000 H       1  UNL1        0.0280
     19 H           3.4022    0.1887    0.0000 H       1  UNL1        0.0280
     20 H           3.7640   -2.3226    0.0000 H       1  UNL1        0.0304
     21 H           5.1180   -0.9148    0.0000 H       1  UNL1        0.0271
     22 H           5.6000   -0.3104    0.0000 H       1  UNL1        0.0271
     23 H           5.7612    0.3955    0.0000 H       1  UNL1        0.0275
     24 H           5.5891    1.1493    0.0000 H       1  UNL1        0.0275
     25 H           2.0911   -0.5585    0.0000 H       1  UNL1        0.0268
     26 H           1.9812   -1.3807    0.0000 H       1  UNL1        0.0268
     27 H           2.3912   -2.1409    0.0000 H       1  UNL1        0.0268
     28 H           3.1385   -2.5008    0.0000 H       1  UNL1        0.0268
     29 H           5.4060    2.2833    0.0000 H       1  UNL1        0.0239
     30 H           4.9396    3.0258    0.0000 H       1  UNL1        0.0239
     31 H           4.1971    2.5593    0.0000 H       1  UNL1        0.0239
     32 H           4.2354   -2.8687    0.0000 H       1  UNL1        0.0233
     33 H           5.1121   -2.8505    0.0000 H       1  UNL1        0.0233
     34 H           5.0939   -1.9739    0.0000 H       1  UNL1        0.0233
     35 H           2.6442    1.7992    0.0000 H       1  UNL1        0.0239
     36 H           1.7680    1.7664    0.0000 H       1  UNL1        0.0239
     37 H           1.8008    0.8902    0.0000 H       1  UNL1        0.0239
     38 H           1.8172    0.9622    0.0000 H       1  UNL1        0.0239
     39 H           1.4075    0.1870    0.0000 H       1  UNL1        0.0239
     40 H           2.1828   -0.2227    0.0000 H       1  UNL1        0.0239
@<TRIPOS>BOND
     1     1    12    2
     2     2     3    1
     3     2     5    1
     4     2     6    1
     5     2     8    1
     6     3     7    1
     7     3    10    1
     8     3    17    1
     9     4     5    1
    10     4     9    1
    11     4    12    1
    12     4    13    1
    13     5    18    1
    14     5    19    1
    15     6    11    1
    16     6    14    1
    17     6    20    1
    18     7    12    1
    19     7    15    1
    20     7    16    1
    21     8     9    1
    22     8    21    1
    23     8    22    1
    24     9    23    1
    25     9    24    1
    26    10    11    1
    27    10    25    1
    28    10    26    1
    29    11    27    1
    30    11    28    1
    31    13    29    1
    32    13    30    1
    33    13    31    1
    34    14    32    1
    35    14    33    1
    36    14    34    1
    37    15    35    1
    38    15    36    1
    39    15    37    1
    40    16    38    1
    41    16    39    1
    42    16    40    1
