@<TRIPOS>MOLECULE
IMPHY005595
 58 63 0 0 0
SMALL
GASTEIGER

@<TRIPOS>ATOM
      1 O           6.3962    2.7510    0.0000 O.2     1  UNL1       -0.4537
      2 O           4.6523   -1.2559    0.0000 O.2     1  UNL1       -0.4544
      3 O           2.9042    1.7856    0.0000 O.3     1  UNL1       -0.5052
      4 O           6.3683    1.7856    0.0000 O.3     1  UNL1       -0.5059
      5 O           2.9042    2.7856    0.0000 O.3     1  UNL1       -0.5059
      6 O           4.6362    5.7857    0.0000 O.3     1  UNL1       -0.5058
      7 O           6.3846    5.8202    0.0000 O.2     1  UNL1       -0.2869
      8 O           2.0000    0.2888    0.0000 O.2     1  UNL1       -0.2869
      9 O          10.7586    1.2515    0.0000 O.3     1  UNL1       -0.5068
     10 O           3.7696   -5.7836    0.0000 O.3     1  UNL1       -0.5068
     11 C           4.6362    2.7856    0.0000 C.ar    1  UNL1        0.0737
     12 C           4.6362    1.7856    0.0000 C.ar    1  UNL1        0.0729
     13 C           5.5022    3.2856    0.0000 C.ar    1  UNL1        0.1542
     14 C           5.5022    4.2857    0.0000 C.ar    1  UNL1        0.1061
     15 C           3.7702    0.2856    0.0000 C.ar    1  UNL1        0.1061
     16 C           3.7702    1.2856    0.0000 C.ar    1  UNL1        0.1426
     17 C           4.6362   -0.2144    0.0000 C.ar    1  UNL1        0.1463
     18 C           5.5022    1.2856    0.0000 C.ar    1  UNL1        0.1318
     19 C           3.7702    3.2856    0.0000 C.ar    1  UNL1        0.1318
     20 C           5.5022    0.2856    0.0000 C.ar    1  UNL1        0.0237
     21 C           4.6362    4.7857    0.0000 C.ar    1  UNL1        0.1347
     22 C           3.7702    4.2857    0.0000 C.ar    1  UNL1        0.0229
     23 C           6.3962    4.8203    0.0000 C.ar    1  UNL1        0.1966
     24 C           7.3022    3.2648    0.0000 C.ar    1  UNL1        0.1393
     25 C           2.8602   -0.2212    0.0000 C.ar    1  UNL1        0.1966
     26 C           3.7542   -1.7836    0.0000 C.ar    1  UNL1        0.1392
     27 C           7.3022    4.3065    0.0000 C.ar    1  UNL1        0.0288
     28 C           2.8522   -1.2628    0.0000 C.ar    1  UNL1        0.0288
     29 C           8.1663    2.7615    0.0000 C.ar    1  UNL1        0.0176
     30 C           3.7581   -2.7836    0.0000 C.ar    1  UNL1        0.0176
     31 C           8.1625    1.7615    0.0000 C.ar    1  UNL1       -0.0476
     32 C           9.0343    3.2582    0.0000 C.ar    1  UNL1       -0.0476
     33 C           2.8940   -3.2869    0.0000 C.ar    1  UNL1       -0.0476
     34 C           4.6260   -3.2803    0.0000 C.ar    1  UNL1       -0.0476
     35 C           9.0266    1.2582    0.0000 C.ar    1  UNL1       -0.0195
     36 C           9.8984    2.7548    0.0000 C.ar    1  UNL1       -0.0195
     37 C           9.8945    1.7548    0.0000 C.ar    1  UNL1        0.1169
     38 C           2.8978   -4.2869    0.0000 C.ar    1  UNL1       -0.0195
     39 C           4.6299   -4.2802    0.0000 C.ar    1  UNL1       -0.0195
     40 C           3.7658   -4.7836    0.0000 C.ar    1  UNL1        0.1169
     41 H           6.0392   -0.0244    0.0000 H       1  UNL1        0.0691
     42 H           3.2332    4.5956    0.0000 H       1  UNL1        0.0691
     43 H           7.8380    4.6185    0.0000 H       1  UNL1        0.0693
     44 H           2.3140   -1.5707    0.0000 H       1  UNL1        0.0693
     45 H           2.3672    1.4756    0.0000 H       1  UNL1        0.2922
     46 H           6.9052    1.4756    0.0000 H       1  UNL1        0.2922
     47 H           2.3672    3.0956    0.0000 H       1  UNL1        0.2922
     48 H           7.6244    1.4536    0.0000 H       1  UNL1        0.0626
     49 H           9.0367    3.8782    0.0000 H       1  UNL1        0.0626
     50 H           4.0993    6.0956    0.0000 H       1  UNL1        0.2922
     51 H           2.3559   -2.9790    0.0000 H       1  UNL1        0.0626
     52 H           5.1618   -2.9682    0.0000 H       1  UNL1        0.0626
     53 H           9.0242    0.6382    0.0000 H       1  UNL1        0.0654
     54 H          10.4365    3.0628    0.0000 H       1  UNL1        0.0654
     55 H           2.3621   -4.5990    0.0000 H       1  UNL1        0.0654
     56 H           5.1680   -4.5882    0.0000 H       1  UNL1        0.0654
     57 H          11.2967    1.5594    0.0000 H       1  UNL1        0.2921
     58 H           3.2339   -6.0956    0.0000 H       1  UNL1        0.2921
@<TRIPOS>BOND
     1     1    13   ar
     2     1    24   ar
     3     2    17   ar
     4     2    26   ar
     5     3    16    1
     6     3    45    1
     7     4    18    1
     8     4    46    1
     9     5    19    1
    10     5    47    1
    11     6    21    1
    12     6    50    1
    13     7    23    2
    14     8    25    2
    15     9    37    1
    16     9    57    1
    17    10    40    1
    18    10    58    1
    19    11    12    1
    20    11    13   ar
    21    11    19   ar
    22    12    16   ar
    23    12    18   ar
    24    13    14   ar
    25    14    21   ar
    26    14    23   ar
    27    15    16   ar
    28    15    17   ar
    29    15    25   ar
    30    17    20   ar
    31    18    20   ar
    32    19    22   ar
    33    20    41    1
    34    21    22   ar
    35    22    42    1
    36    23    27   ar
    37    24    27   ar
    38    24    29    1
    39    25    28   ar
    40    26    28   ar
    41    26    30    1
    42    27    43    1
    43    28    44    1
    44    29    31   ar
    45    29    32   ar
    46    30    33   ar
    47    30    34   ar
    48    31    35   ar
    49    31    48    1
    50    32    36   ar
    51    32    49    1
    52    33    38   ar
    53    33    51    1
    54    34    39   ar
    55    34    52    1
    56    35    37   ar
    57    35    53    1
    58    36    37   ar
    59    36    54    1
    60    38    40   ar
    61    38    55    1
    62    39    40   ar
    63    39    56    1
