@<TRIPOS>MOLECULE
IMPHY008507
 51 54 0 0 0
SMALL
GASTEIGER

@<TRIPOS>ATOM
      1 O           4.2974   -3.6428    0.0000 O.3     1  UNL1       -0.4779
      2 O           4.3217    0.5115    0.0000 O.2     1  UNL1       -0.4542
      3 O           2.5357   -2.5336    0.0000 O.3     1  UNL1       -0.5032
      4 O           6.9198   -0.9885    0.0000 O.2     1  UNL1       -0.2863
      5 O           7.8240    0.5083    0.0000 O.3     1  UNL1       -0.5055
      6 O           6.0659    3.5807    0.0000 O.3     1  UNL1       -0.5062
      7 C           5.2370   -4.1853    0.0000 C.3     1  UNL1        0.1237
      8 C           5.2038   -2.0300    0.0000 C.ar    1  UNL1        0.0345
      9 C           5.1877   -0.9885    0.0000 C.ar    1  UNL1        0.0755
     10 C           4.3058   -2.5578    0.0000 C.ar    1  UNL1        0.1709
     11 C           6.1725   -3.6355    0.0000 C.2     1  UNL1       -0.0409
     12 C           4.3217   -0.4885    0.0000 C.ar    1  UNL1        0.1435
     13 C           6.1557   -2.5507    0.0000 C.2     1  UNL1       -0.0504
     14 C           6.0538    0.5115    0.0000 C.ar    1  UNL1        0.1064
     15 C           6.0538   -0.4885    0.0000 C.ar    1  UNL1        0.2044
     16 C           5.7404   -5.0493    0.0000 C.3     1  UNL1       -0.0215
     17 C           4.7404   -5.0532    0.0000 C.3     1  UNL1       -0.0215
     18 C           3.4037   -2.0370    0.0000 C.ar    1  UNL1        0.1627
     19 C           5.1877    1.0115    0.0000 C.ar    1  UNL1        0.1463
     20 C           3.4117   -0.9954    0.0000 C.ar    1  UNL1        0.0266
     21 C           6.9638    1.0183    0.0000 C.ar    1  UNL1        0.1381
     22 C           6.9718    2.0599    0.0000 C.ar    1  UNL1        0.0400
     23 C           5.1717    2.0530    0.0000 C.ar    1  UNL1        0.0234
     24 C           6.0697    2.5807    0.0000 C.ar    1  UNL1        0.1273
     25 C           7.8397    2.5566    0.0000 C.3     1  UNL1       -0.0023
     26 C           7.8436    3.5566    0.0000 C.2     1  UNL1       -0.0807
     27 C           8.7115    4.0532    0.0000 C.2     1  UNL1       -0.0793
     28 C           8.7154    5.0532    0.0000 C.3     1  UNL1       -0.0440
     29 C           9.5756    3.5499    0.0000 C.3     1  UNL1       -0.0440
     30 H           6.7129   -3.9393    0.0000 H       1  UNL1        0.0611
     31 H           6.6866   -2.2304    0.0000 H       1  UNL1        0.0623
     32 H           5.2046   -5.3614    0.0000 H       1  UNL1        0.0271
     33 H           6.0524   -5.5851    0.0000 H       1  UNL1        0.0271
     34 H           6.2761   -4.7373    0.0000 H       1  UNL1        0.0271
     35 H           4.2022   -4.7453    0.0000 H       1  UNL1        0.0271
     36 H           4.4324   -5.5913    0.0000 H       1  UNL1        0.0271
     37 H           5.2785   -5.3611    0.0000 H       1  UNL1        0.0271
     38 H           2.8784   -0.6792    0.0000 H       1  UNL1        0.0692
     39 H           4.6312    2.3567    0.0000 H       1  UNL1        0.0691
     40 H           8.0496    1.9731    0.0000 H       1  UNL1        0.0358
     41 H           8.4507    2.6619    0.0000 H       1  UNL1        0.0358
     42 H           7.3079    3.8686    0.0000 H       1  UNL1        0.0575
     43 H           2.0000   -2.2216    0.0000 H       1  UNL1        0.2923
     44 H           8.3644    0.8121    0.0000 H       1  UNL1        0.2922
     45 H           5.5277    3.8886    0.0000 H       1  UNL1        0.2921
     46 H           9.3354    5.0508    0.0000 H       1  UNL1        0.0274
     47 H           9.2636    3.0141    0.0000 H       1  UNL1        0.0274
     48 H          10.1114    3.2378    0.0000 H       1  UNL1        0.0274
     49 H           9.8877    4.0856    0.0000 H       1  UNL1        0.0274
     50 H           8.7178    5.6732    0.0000 H       1  UNL1        0.0274
     51 H           8.0954    5.0556    0.0000 H       1  UNL1        0.0274
@<TRIPOS>BOND
     1     1     7    1
     2     1    10    1
     3     2    12   ar
     4     2    19   ar
     5     3    18    1
     6     3    43    1
     7     4    15    2
     8     5    21    1
     9     5    44    1
    10     6    24    1
    11     6    45    1
    12     7    11    1
    13     7    16    1
    14     7    17    1
    15     8     9   ar
    16     8    10   ar
    17     8    13    1
    18     9    12   ar
    19     9    15   ar
    20    10    18   ar
    21    11    13    2
    22    11    30    1
    23    12    20   ar
    24    13    31    1
    25    14    15   ar
    26    14    19   ar
    27    14    21   ar
    28    16    32    1
    29    16    33    1
    30    16    34    1
    31    17    35    1
    32    17    36    1
    33    17    37    1
    34    18    20   ar
    35    19    23   ar
    36    20    38    1
    37    21    22   ar
    38    22    24   ar
    39    22    25    1
    40    23    24   ar
    41    23    39    1
    42    25    26    1
    43    25    40    1
    44    25    41    1
    45    26    27    2
    46    26    42    1
    47    27    28    1
    48    27    29    1
    49    28    46    1
    50    28    50    1
    51    28    51    1
    52    29    47    1
    53    29    48    1
    54    29    49    1
