@<TRIPOS>MOLECULE
IMPHY005654
 24 26 0 0 0
SMALL
GASTEIGER

@<TRIPOS>ATOM
      1 O           4.6660   -1.8100    0.0000 O.2     1  UNL1       -0.2865
      2 N           4.6660    1.1900    0.0000 N.ar    1  UNL1       -0.3540
      3 C           5.5321   -0.3100    0.0000 C.ar    1  UNL1        0.0456
      4 C           3.8000   -0.3100    0.0000 C.ar    1  UNL1        0.0456
      5 C           5.5321    0.6900    0.0000 C.ar    1  UNL1        0.0506
      6 C           3.8000    0.6900    0.0000 C.ar    1  UNL1        0.0506
      7 C           4.6660   -0.8100    0.0000 C.ar    1  UNL1        0.1971
      8 C           6.4260   -0.8447    0.0000 C.ar    1  UNL1       -0.0489
      9 C           2.9061   -0.8447    0.0000 C.ar    1  UNL1       -0.0489
     10 C           6.4260    1.2247    0.0000 C.ar    1  UNL1       -0.0377
     11 C           2.9061    1.2247    0.0000 C.ar    1  UNL1       -0.0377
     12 C           2.0000   -0.3308    0.0000 C.ar    1  UNL1       -0.0610
     13 C           7.3321   -0.3308    0.0000 C.ar    1  UNL1       -0.0610
     14 C           7.3321    0.7108    0.0000 C.ar    1  UNL1       -0.0598
     15 C           2.0000    0.7108    0.0000 C.ar    1  UNL1       -0.0598
     16 H           4.6660    1.8100    0.0000 H       1  UNL1        0.1659
     17 H           6.4188   -1.4646    0.0000 H       1  UNL1        0.0625
     18 H           2.9132   -1.4646    0.0000 H       1  UNL1        0.0625
     19 H           6.4188    1.8446    0.0000 H       1  UNL1        0.0638
     20 H           2.9132    1.8446    0.0000 H       1  UNL1        0.0638
     21 H           7.8678   -0.6429    0.0000 H       1  UNL1        0.0618
     22 H           1.4643   -0.6429    0.0000 H       1  UNL1        0.0618
     23 H           7.8678    1.0229    0.0000 H       1  UNL1        0.0618
     24 H           1.4643    1.0229    0.0000 H       1  UNL1        0.0618
@<TRIPOS>BOND
     1     1     7    2
     2     2     5   ar
     3     2     6   ar
     4     2    16    1
     5     3     5   ar
     6     3     7   ar
     7     3     8   ar
     8     4     6   ar
     9     4     7   ar
    10     4     9   ar
    11     5    10   ar
    12     6    11   ar
    13     8    13   ar
    14     8    17    1
    15     9    12   ar
    16     9    18    1
    17    10    14   ar
    18    10    19    1
    19    11    15   ar
    20    11    20    1
    21    12    15   ar
    22    12    22    1
    23    13    14   ar
    24    13    21    1
    25    14    23    1
    26    15    24    1
