@<TRIPOS>MOLECULE
IMPHY006793
 61 64 0 0 0
SMALL
GASTEIGER

@<TRIPOS>ATOM
      1 O           7.2764   -4.5547    0.0000 O.3     1  UNL1       -0.4791
      2 O           8.5655   -1.7885    0.0000 O.3     1  UNL1       -0.4801
      3 O           5.4641   -5.7500    0.0000 O.3     1  UNL1       -0.5033
      4 O           6.9192   -1.2504    0.0000 O.2     1  UNL1       -0.2502
      5 O          10.8600   -5.4820    0.0000 O.3     1  UNL1       -0.5033
      6 O           3.7320    0.2500    0.0000 O.3     1  UNL1       -0.4465
      7 O          11.8600   -3.7500    0.0000 O.3     1  UNL1       -0.5033
      8 O           5.4641    0.2500    0.0000 O.2     1  UNL1       -0.2456
      9 O           4.5981    2.7500    0.0000 O.3     1  UNL1       -0.4780
     10 O           5.4641    1.2500    0.0000 O.2     1  UNL1       -0.2468
     11 O           4.5981    4.7500    0.0000 O.3     1  UNL1       -0.5033
     12 O           2.8660    5.7500    0.0000 O.3     1  UNL1       -0.5033
     13 C           7.2764   -2.9453    0.0000 C.3     1  UNL1        0.1261
     14 C           7.8600   -3.7500    0.0000 C.3     1  UNL1        0.1425
     15 C           6.3301   -3.2500    0.0000 C.ar    1  UNL1        0.0227
     16 C           6.3301   -4.2500    0.0000 C.ar    1  UNL1        0.1672
     17 C           8.8600   -3.7500    0.0000 C.ar    1  UNL1       -0.0026
     18 C           5.4641   -2.7500    0.0000 C.ar    1  UNL1       -0.0170
     19 C           7.5870   -1.9948    0.0000 C.2     1  UNL1        0.3163
     20 C           5.4641   -4.7500    0.0000 C.ar    1  UNL1        0.1588
     21 C           4.5981   -3.2500    0.0000 C.ar    1  UNL1       -0.0506
     22 C           9.3600   -4.6160    0.0000 C.ar    1  UNL1       -0.0098
     23 C           9.3600   -2.8840    0.0000 C.ar    1  UNL1       -0.0514
     24 C           4.5981   -4.2500    0.0000 C.ar    1  UNL1       -0.0159
     25 C           5.4641   -1.7500    0.0000 C.2     1  UNL1       -0.0474
     26 C          10.3600   -4.6160    0.0000 C.ar    1  UNL1        0.1586
     27 C          10.3600   -2.8840    0.0000 C.ar    1  UNL1       -0.0162
     28 C          10.8600   -3.7500    0.0000 C.ar    1  UNL1        0.1582
     29 C           4.5981   -1.2500    0.0000 C.2     1  UNL1        0.0231
     30 C           3.7320    1.2500    0.0000 C.3     1  UNL1        0.2029
     31 C           2.8660    1.7500    0.0000 C.3     1  UNL1        0.0203
     32 C           4.5981   -0.2500    0.0000 C.2     1  UNL1        0.3327
     33 C           2.8660    2.7500    0.0000 C.ar    1  UNL1       -0.0396
     34 C           3.7320    3.2500    0.0000 C.ar    1  UNL1       -0.0132
     35 C           4.5981    1.7500    0.0000 C.2     1  UNL1        0.3463
     36 C           2.0000    3.2500    0.0000 C.ar    1  UNL1       -0.0548
     37 C           3.7320    4.2500    0.0000 C.ar    1  UNL1        0.1585
     38 C           2.0000    4.2500    0.0000 C.ar    1  UNL1       -0.0163
     39 C           2.8660    4.7500    0.0000 C.ar    1  UNL1        0.1582
     40 H           6.8389   -2.5059    0.0000 H       1  UNL1        0.0504
     41 H           8.1417   -4.3023    0.0000 H       1  UNL1        0.0796
     42 H           4.0611   -2.9400    0.0000 H       1  UNL1        0.0625
     43 H           9.0500   -5.1530    0.0000 H       1  UNL1        0.0659
     44 H           9.0500   -2.3470    0.0000 H       1  UNL1        0.0623
     45 H           4.0611   -4.5600    0.0000 H       1  UNL1        0.0655
     46 H           6.0010   -1.4400    0.0000 H       1  UNL1        0.0626
     47 H          10.6700   -2.3470    0.0000 H       1  UNL1        0.0655
     48 H           8.7581   -1.1992    0.0000 H       1  UNL1        0.2951
     49 H           4.9272   -6.0600    0.0000 H       1  UNL1        0.2923
     50 H           4.0611   -1.5600    0.0000 H       1  UNL1        0.0689
     51 H           4.2690    0.9400    0.0000 H       1  UNL1        0.0856
     52 H           2.2554    1.8577    0.0000 H       1  UNL1        0.0355
     53 H           2.6540    1.1674    0.0000 H       1  UNL1        0.0355
     54 H          10.5500   -6.0190    0.0000 H       1  UNL1        0.2923
     55 H          12.1700   -3.2131    0.0000 H       1  UNL1        0.2923
     56 H           4.2690    2.9400    0.0000 H       1  UNL1        0.0658
     57 H           1.4631    2.9400    0.0000 H       1  UNL1        0.0621
     58 H           1.4631    4.5600    0.0000 H       1  UNL1        0.0655
     59 H           5.1350    3.0600    0.0000 H       1  UNL1        0.2952
     60 H           4.5981    5.3700    0.0000 H       1  UNL1        0.2923
     61 H           2.3291    6.0600    0.0000 H       1  UNL1        0.2923
@<TRIPOS>BOND
     1     1    14    1
     2     1    16    1
     3     2    19    1
     4     2    48    1
     5     3    20    1
     6     3    49    1
     7     4    19    2
     8     5    26    1
     9     5    54    1
    10    30     6    1
    11     6    32    1
    12     7    28    1
    13     7    55    1
    14     8    32    2
    15     9    35    1
    16     9    59    1
    17    10    35    2
    18    11    37    1
    19    11    60    1
    20    12    39    1
    21    12    61    1
    22    13    14    1
    23    13    15    1
    24    13    19    1
    25    13    40    1
    26    14    17    1
    27    14    41    1
    28    15    16   ar
    29    15    18   ar
    30    16    20   ar
    31    17    22   ar
    32    17    23   ar
    33    18    21   ar
    34    18    25    1
    35    20    24   ar
    36    21    24   ar
    37    21    42    1
    38    22    26   ar
    39    22    43    1
    40    23    27   ar
    41    23    44    1
    42    24    45    1
    43    25    29    2
    44    25    46    1
    45    26    28   ar
    46    27    28   ar
    47    27    47    1
    48    29    32    1
    49    29    50    1
    50    30    31    1
    51    30    35    1
    52    30    51    1
    53    31    33    1
    54    31    52    1
    55    31    53    1
    56    33    34   ar
    57    33    36   ar
    58    34    37   ar
    59    34    56    1
    60    36    38   ar
    61    36    57    1
    62    37    39   ar
    63    38    39   ar
    64    38    58    1
