@<TRIPOS>MOLECULE
IMPHY011319
 31 36 0 0 0
SMALL
GASTEIGER

@<TRIPOS>ATOM
      1 N           1.7486   -3.8009    0.0000 N.3     1  UNL1       -0.2736
      2 C           1.7486   -5.7795    0.0000 C.3     1  UNL1        0.0745
      3 C           2.1535   -4.9421    0.0000 C.3     1  UNL1        0.0446
      4 C           3.1383   -4.3807    0.0000 C.3     1  UNL1        0.0346
      5 C           3.1383   -3.2579    0.0000 C.3     1  UNL1        0.0443
      6 C           3.9481   -2.6045    0.0000 C.3     1  UNL1        0.0087
      7 C           5.1077   -2.7977    0.0000 C.3     1  UNL1        0.0589
      8 C           5.5955   -3.8101    0.0000 C.3     1  UNL1        0.1347
      9 C           5.1077   -4.8316    0.0000 C.3     1  UNL1        0.0701
     10 C           4.0218   -5.0893    0.0000 C.3     1  UNL1        0.1191
     11 C           3.1383   -2.1259    0.0000 C.3     1  UNL1        0.0645
     12 C           1.2148   -4.3807    0.0000 C.3     1  UNL1        0.0064
     13 C           1.2148   -3.2579    0.0000 C.3     1  UNL1        0.0331
     14 C           2.1535   -2.7425    0.0000 C.3     1  UNL1        0.1532
     15 C           3.9481   -1.4817    0.0000 C.3     1  UNL1        0.0052
     16 C           4.9329   -1.0307    0.0000 C.3     1  UNL1        0.0578
     17 C           5.6875   -1.8406    0.0000 C.3     1  UNL1        0.1566
     18 C           7.4085   -3.8193    0.0000 C.3     1  UNL1        0.0602
     19 C           7.4085   -1.0307    0.0000 C.3     1  UNL1        0.1202
     20 C           0.6534   -3.8009    0.0000 C.3     1  UNL1        0.0721
     21 C           0.0000   -2.6873    0.0000 C.3     1  UNL1        0.0188
     22 C           2.5677   -5.8256    0.0000 C.3     1  UNL1        0.1435
     23 O           1.8682   -6.9207    0.0000 O.3     1  UNL1       -0.3511
     24 C           2.4388   -8.0803    0.0000 C.3     1  UNL1        0.1741
     25 O           6.2213   -4.8776    0.0000 O.3     1  UNL1       -0.2254
     26 O           4.0218   -6.1753    0.0000 O.3     1  UNL1       -0.3534
     27 C           5.0709   -6.6538    0.0000 C.3     1  UNL1        0.1740
     28 O           2.1535   -1.6105    0.0000 O.3     1  UNL1       -0.2231
     29 O           6.5434   -1.8406    0.0000 O.3     1  UNL1       -0.2230
     30 O           7.9147    0.0000    0.0000 O.3     1  UNL1       -0.3534
     31 C           9.2031    0.0000    0.0000 C.3     1  UNL1        0.1740
@<TRIPOS>BOND
     1     1    11    1
     2     1     2    1
     3     1    20    1
     4     3     2    1
     5     3    12    1
     6     3    22    1
     7     4     3    1
     8     4    10    1
     9     5     4    1
    10     5    14    1
    11     5     6    1
    12     5    11    1
    13     6    15    1
    14     7     6    1
    15     7     8    1
    16     7    17    1
    17     8    18    1
    18     8    25    1
    19     9     8    1
    20     9    10    1
    21     9    11    1
    22    10    26    1
    23    12    13    1
    24    13    14    1
    25    14    28    1
    26    16    15    1
    27    16    17    1
    28    16    19    1
    29    17    29    1
    30    18    19    1
    31    19    30    1
    32    20    21    1
    33    22    23    1
    34    23    24    1
    35    26    27    1
    36    30    31    1
