@<TRIPOS>MOLECULE
IMPHY016962
 22 22 0 0 0
SMALL
GASTEIGER

@<TRIPOS>ATOM
      1 O           3.7320    1.9400    0.0000 O.3     1  UNL1       -0.3875
      2 C           2.8660    1.4400    0.0000 C.3     1  UNL1        0.0774
      3 C           2.8660    0.4400    0.0000 C.ar    1  UNL1       -0.0194
      4 C           3.7320   -0.0600    0.0000 C.ar    1  UNL1       -0.0559
      5 C           2.0000   -0.0600    0.0000 C.ar    1  UNL1       -0.0559
      6 C           2.8660   -1.5600    0.0000 C.ar    1  UNL1       -0.0504
      7 C           2.0000    1.9400    0.0000 C.3     1  UNL1       -0.0348
      8 C           3.7320   -1.0600    0.0000 C.ar    1  UNL1       -0.0585
      9 C           2.0000   -1.0600    0.0000 C.ar    1  UNL1       -0.0585
     10 C           2.8660   -2.5600    0.0000 C.3     1  UNL1       -0.0397
     11 H           2.8660    2.2900    0.0000 H       1  UNL1        0.0641
     12 H           4.2690    0.2500    0.0000 H       1  UNL1        0.0621
     13 H           1.4631    0.2500    0.0000 H       1  UNL1        0.0621
     14 H           2.3100    2.4769    0.0000 H       1  UNL1        0.0258
     15 H           1.4631    2.2500    0.0000 H       1  UNL1        0.0258
     16 H           1.6900    1.4031    0.0000 H       1  UNL1        0.0258
     17 H           4.2690   -1.3700    0.0000 H       1  UNL1        0.0620
     18 H           1.4631   -1.3700    0.0000 H       1  UNL1        0.0620
     19 H           2.2460   -2.5600    0.0000 H       1  UNL1        0.0278
     20 H           2.8660   -3.1800    0.0000 H       1  UNL1        0.0278
     21 H           3.4860   -2.5600    0.0000 H       1  UNL1        0.0278
     22 H           3.7320    2.5600    0.0000 H       1  UNL1        0.2102
@<TRIPOS>BOND
     1     1     2    1
     2     1    22    1
     3     2     3    1
     4     2     7    1
     5     2    11    1
     6     3     4   ar
     7     3     5   ar
     8     4     8   ar
     9     4    12    1
    10     5     9   ar
    11     5    13    1
    12     6     8   ar
    13     6     9   ar
    14     6    10    1
    15     7    14    1
    16     7    15    1
    17     7    16    1
    18     8    17    1
    19     9    18    1
    20    10    19    1
    21    10    20    1
    22    10    21    1
