@<TRIPOS>MOLECULE
IMPHY006365
 58 61 0 0 0
SMALL
GASTEIGER

@<TRIPOS>ATOM
      1 O          10.4366    1.3006    0.0000 O.3     1  UNL1       -0.4811
      2 O           6.9006    1.3284    0.0000 O.2     1  UNL1       -0.4207
      3 O           8.6605   -1.7063    0.0000 O.3     1  UNL1       -0.4939
      4 O           6.9121   -1.7409    0.0000 O.3     1  UNL1       -0.5051
      5 O           5.1304    1.3179    0.0000 O.2     1  UNL1       -0.2444
      6 O           2.5381   -2.2404    0.0000 O.3     1  UNL1       -0.5068
      7 C          10.4446    2.3422    0.0000 C.3     1  UNL1        0.1235
      8 C           9.5266    0.7937    0.0000 C.ar    1  UNL1        0.1393
      9 C           8.6605    1.2937    0.0000 C.ar    1  UNL1        0.0601
     10 C           9.5266   -0.2063    0.0000 C.ar    1  UNL1        0.0411
     11 C           7.7945    0.7937    0.0000 C.ar    1  UNL1        0.1567
     12 C           7.7945   -0.2063    0.0000 C.ar    1  UNL1        0.1022
     13 C           9.5425    2.8630    0.0000 C.2     1  UNL1       -0.0408
     14 C           8.6605   -0.7063    0.0000 C.ar    1  UNL1        0.1412
     15 C           8.6445    2.3352    0.0000 C.2     1  UNL1       -0.0478
     16 C          10.3926   -0.7063    0.0000 C.3     1  UNL1       -0.0023
     17 C          10.9479    3.2063    0.0000 C.3     1  UNL1       -0.0215
     18 C          11.4446    2.3383    0.0000 C.3     1  UNL1       -0.0215
     19 C           6.9006   -0.7409    0.0000 C.ar    1  UNL1        0.1456
     20 C           5.9945   -0.2271    0.0000 C.ar    1  UNL1        0.1086
     21 C          10.3926   -1.7063    0.0000 C.2     1  UNL1       -0.0807
     22 C           5.9945    0.8145    0.0000 C.ar    1  UNL1        0.3486
     23 C           5.1304   -0.7304    0.0000 C.ar    1  UNL1       -0.0072
     24 C          11.2586   -2.2063    0.0000 C.2     1  UNL1       -0.0793
     25 C           9.5266   -2.2063    0.0000 C.3     1  UNL1        0.0788
     26 C           4.2625   -0.2338    0.0000 C.ar    1  UNL1       -0.0502
     27 C           5.1343   -1.7304    0.0000 C.ar    1  UNL1       -0.0502
     28 C          11.2586   -3.2063    0.0000 C.3     1  UNL1       -0.0440
     29 C          12.1246   -1.7063    0.0000 C.3     1  UNL1       -0.0440
     30 C           3.3984   -0.7371    0.0000 C.ar    1  UNL1       -0.0196
     31 C           4.2702   -2.2338    0.0000 C.ar    1  UNL1       -0.0196
     32 C           3.4022   -1.7371    0.0000 C.ar    1  UNL1        0.1169
     33 H           9.5401    3.4830    0.0000 H       1  UNL1        0.0611
     34 H           8.1040    2.6390    0.0000 H       1  UNL1        0.0624
     35 H          11.0032   -0.8139    0.0000 H       1  UNL1        0.0358
     36 H          10.6046   -0.1237    0.0000 H       1  UNL1        0.0358
     37 H          11.4837    2.8942    0.0000 H       1  UNL1        0.0271
     38 H          11.2600    3.7420    0.0000 H       1  UNL1        0.0271
     39 H          10.4122    3.5183    0.0000 H       1  UNL1        0.0271
     40 H          11.4422    1.7183    0.0000 H       1  UNL1        0.0271
     41 H          12.0646    2.3359    0.0000 H       1  UNL1        0.0271
     42 H          11.4470    2.9583    0.0000 H       1  UNL1        0.0271
     43 H           9.8556   -2.0163    0.0000 H       1  UNL1        0.0575
     44 H           6.3788   -2.0570    0.0000 H       1  UNL1        0.2922
     45 H           9.2166   -2.7432    0.0000 H       1  UNL1        0.0660
     46 H          10.0635   -2.5163    0.0000 H       1  UNL1        0.0660
     47 H           9.8366   -1.6693    0.0000 H       1  UNL1        0.0660
     48 H           4.2601    0.3862    0.0000 H       1  UNL1        0.0625
     49 H           5.6724   -2.0383    0.0000 H       1  UNL1        0.0625
     50 H          10.6386   -3.2063    0.0000 H       1  UNL1        0.0274
     51 H          12.4346   -2.2432    0.0000 H       1  UNL1        0.0274
     52 H          12.6616   -1.3963    0.0000 H       1  UNL1        0.0274
     53 H          11.8146   -1.1693    0.0000 H       1  UNL1        0.0274
     54 H          11.2586   -3.8263    0.0000 H       1  UNL1        0.0274
     55 H          11.8786   -3.2063    0.0000 H       1  UNL1        0.0274
     56 H           2.8602   -0.4292    0.0000 H       1  UNL1        0.0654
     57 H           4.2726   -2.8537    0.0000 H       1  UNL1        0.0654
     58 H           2.0000   -1.9325    0.0000 H       1  UNL1        0.2921
@<TRIPOS>BOND
     1     1     7    1
     2     1     8    1
     3     2    11   ar
     4     2    22   ar
     5     3    14    1
     6     3    25    1
     7     4    19    1
     8     4    44    1
     9     5    22    2
    10     6    32    1
    11     6    58    1
    12     7    13    1
    13     7    17    1
    14     7    18    1
    15     8     9   ar
    16     8    10   ar
    17     9    11   ar
    18     9    15    1
    19    10    14   ar
    20    10    16    1
    21    11    12   ar
    22    12    14   ar
    23    12    19   ar
    24    13    15    2
    25    13    33    1
    26    15    34    1
    27    16    21    1
    28    16    35    1
    29    16    36    1
    30    17    37    1
    31    17    38    1
    32    17    39    1
    33    18    40    1
    34    18    41    1
    35    18    42    1
    36    19    20   ar
    37    20    22   ar
    38    20    23    1
    39    21    24    2
    40    21    43    1
    41    23    26   ar
    42    23    27   ar
    43    24    28    1
    44    24    29    1
    45    25    45    1
    46    25    46    1
    47    25    47    1
    48    26    30   ar
    49    26    48    1
    50    27    31   ar
    51    27    49    1
    52    28    50    1
    53    28    54    1
    54    28    55    1
    55    29    51    1
    56    29    52    1
    57    29    53    1
    58    30    32   ar
    59    30    56    1
    60    31    32   ar
    61    31    57    1
