@<TRIPOS>MOLECULE
IMPHY015884
 32 31 0 0 0
SMALL
GASTEIGER

@<TRIPOS>ATOM
      1 O           6.3301    0.2500    0.0000 O.3     1  UNL1       -0.4644
      2 O           7.1962   -1.2500    0.0000 O.2     1  UNL1       -0.2505
      3 C           8.0622    0.2500    0.0000 C.3     1  UNL1        0.0534
      4 C           4.5981    0.2500    0.0000 C.3     1  UNL1       -0.0185
      5 C           3.7320   -0.2500    0.0000 C.3     1  UNL1       -0.0502
      6 C           8.9282   -0.2500    0.0000 C.3     1  UNL1       -0.0432
      7 C           5.4641   -0.2500    0.0000 C.3     1  UNL1        0.0925
      8 C           2.8660    0.2500    0.0000 C.3     1  UNL1       -0.0558
      9 C           7.1962   -0.2500    0.0000 C.2     1  UNL1        0.3099
     10 C           8.0622    1.2500    0.0000 C.3     1  UNL1       -0.0523
     11 C           9.7942    0.2500    0.0000 C.3     1  UNL1       -0.0645
     12 C           2.0000   -0.2500    0.0000 C.3     1  UNL1       -0.0653
     13 H           7.5252    0.5600    0.0000 H       1  UNL1        0.0410
     14 H           4.9966    0.7249    0.0000 H       1  UNL1        0.0298
     15 H           4.1996    0.7249    0.0000 H       1  UNL1        0.0298
     16 H           3.3335   -0.7249    0.0000 H       1  UNL1        0.0266
     17 H           4.1306   -0.7249    0.0000 H       1  UNL1        0.0266
     18 H           8.5297   -0.7249    0.0000 H       1  UNL1        0.0270
     19 H           9.3267   -0.7249    0.0000 H       1  UNL1        0.0270
     20 H           5.0656   -0.7249    0.0000 H       1  UNL1        0.0697
     21 H           5.8626   -0.7249    0.0000 H       1  UNL1        0.0697
     22 H           3.2646    0.7249    0.0000 H       1  UNL1        0.0263
     23 H           2.4675    0.7249    0.0000 H       1  UNL1        0.0263
     24 H           8.6822    1.2500    0.0000 H       1  UNL1        0.0238
     25 H           8.0622    1.8700    0.0000 H       1  UNL1        0.0238
     26 H           7.4422    1.2500    0.0000 H       1  UNL1        0.0238
     27 H          10.1042   -0.2869    0.0000 H       1  UNL1        0.0230
     28 H          10.3312    0.5600    0.0000 H       1  UNL1        0.0230
     29 H           9.4842    0.7869    0.0000 H       1  UNL1        0.0230
     30 H           1.6900    0.2869    0.0000 H       1  UNL1        0.0230
     31 H           1.4631   -0.5600    0.0000 H       1  UNL1        0.0230
     32 H           2.3100   -0.7869    0.0000 H       1  UNL1        0.0230
@<TRIPOS>BOND
     1     1     7    1
     2     1     9    1
     3     2     9    2
     4     3     6    1
     5     3     9    1
     6     3    10    1
     7     3    13    1
     8     4     5    1
     9     4     7    1
    10     4    14    1
    11     4    15    1
    12     5     8    1
    13     5    16    1
    14     5    17    1
    15     6    11    1
    16     6    18    1
    17     6    19    1
    18     7    20    1
    19     7    21    1
    20     8    12    1
    21     8    22    1
    22     8    23    1
    23    10    24    1
    24    10    25    1
    25    10    26    1
    26    11    27    1
    27    11    28    1
    28    11    29    1
    29    12    30    1
    30    12    31    1
    31    12    32    1
