@<TRIPOS>MOLECULE
IMPHY014536
 145 152 0 0 0
SMALL
GASTEIGER

@<TRIPOS>ATOM
      1 O          15.6871    6.2552    0.0000 O.3     1  UNL1       -0.3876
      2 O          18.2755    3.7452    0.0000 O.3     1  UNL1       -0.3886
      3 O          16.5396    2.7519    0.0000 O.3     1  UNL1       -0.3889
      4 O          19.4395    4.7511    0.0000 O.2     1  UNL1       -0.2974
      5 O          11.1972    2.6248    0.0000 O.3     1  UNL1       -0.3706
      6 O          11.1972   -0.3752    0.0000 O.3     1  UNL1       -0.3770
      7 O           9.4651    0.6248    0.0000 O.3     1  UNL1       -0.3429
      8 O           8.5991   -0.8752    0.0000 O.3     1  UNL1       -0.3456
      9 O          11.1972   -2.3752    0.0000 O.3     1  UNL1       -0.3770
     10 O           9.4651   -3.3752    0.0000 O.3     1  UNL1       -0.3403
     11 O           7.7331   -3.3752    0.0000 O.3     1  UNL1       -0.3431
     12 O           9.4651   -5.3752    0.0000 O.3     1  UNL1       -0.3841
     13 O           6.0010   -5.3752    0.0000 O.3     1  UNL1       -0.3402
     14 O           7.7331   -6.3752    0.0000 O.3     1  UNL1       -0.3744
     15 O           5.1350   -3.8752    0.0000 O.3     1  UNL1       -0.3405
     16 O           4.2690   -6.3752    0.0000 O.3     1  UNL1       -0.3841
     17 O           2.5369   -5.3752    0.0000 O.3     1  UNL1       -0.3864
     18 O           2.5369   -3.3752    0.0000 O.3     1  UNL1       -0.3865
     19 O           5.1350   -1.8752    0.0000 O.3     1  UNL1       -0.3924
     20 C          16.5511    5.7519    0.0000 C.3     1  UNL1        0.0780
     21 C          17.4152    5.2486    0.0000 C.3     1  UNL1        0.0347
     22 C          15.6832    5.2552    0.0000 C.3     1  UNL1       -0.0020
     23 C          15.6793    4.2552    0.0000 C.3     1  UNL1        0.0023
     24 C          14.7833    3.7240    0.0000 C.3     1  UNL1       -0.0055
     25 C          17.4114    4.2486    0.0000 C.3     1  UNL1        0.0899
     26 C          16.5434    3.7519    0.0000 C.3     1  UNL1        0.0856
     27 C          18.1548    5.9128    0.0000 C.3     1  UNL1        0.0278
     28 C          16.7641    6.7229    0.0000 C.3     1  UNL1       -0.0224
     29 C          17.7532    6.8221    0.0000 C.3     1  UNL1       -0.0402
     30 C          14.7913    5.7933    0.0000 C.3     1  UNL1       -0.0287
     31 C          13.8793    4.2414    0.0000 C.2     1  UNL1       -0.0668
     32 C          18.2793    4.7452    0.0000 C.3     1  UNL1       -0.0538
     33 C          14.8043    2.6392    0.0000 C.3     1  UNL1       -0.0432
     34 C          13.8833    5.2830    0.0000 C.2     1  UNL1       -0.0839
     35 C          15.6513    3.2274    0.0000 C.3     1  UNL1       -0.0555
     36 C          12.9334    3.7098    0.0000 C.3     1  UNL1       -0.0260
     37 C          12.9292    2.6248    0.0000 C.3     1  UNL1       -0.0109
     38 C          13.8710    2.0859    0.0000 C.3     1  UNL1       -0.0468
     39 C          19.1325    5.7028    0.0000 C.2     1  UNL1        0.1341
     40 C          12.0632    2.1248    0.0000 C.3     1  UNL1        0.0647
     41 C          19.8032    6.4445    0.0000 C.3     1  UNL1       -0.0058
     42 C          12.0632    1.1248    0.0000 C.3     1  UNL1        0.0026
     43 C          11.1972    0.6248    0.0000 C.3     1  UNL1        0.0893
     44 C          10.3312    2.1248    0.0000 C.3     1  UNL1        0.0849
     45 C          10.3312    1.1248    0.0000 C.3     1  UNL1        0.1135
     46 C           9.4651    2.6248    0.0000 C.3     1  UNL1       -0.0361
     47 C           9.4651   -0.3752    0.0000 C.3     1  UNL1        0.1626
     48 C          12.0632   -0.8752    0.0000 C.3     1  UNL1        0.0369
     49 C          10.3312   -0.8752    0.0000 C.3     1  UNL1        0.0272
     50 C          10.3312   -1.8752    0.0000 C.3     1  UNL1        0.0915
     51 C           8.5991   -1.8752    0.0000 C.3     1  UNL1        0.0875
     52 C           9.4651   -2.3752    0.0000 C.3     1  UNL1        0.1138
     53 C           7.7331   -2.3752    0.0000 C.3     1  UNL1       -0.0361
     54 C           8.5991   -3.8752    0.0000 C.3     1  UNL1        0.1883
     55 C          12.0632   -1.8752    0.0000 C.3     1  UNL1        0.0369
     56 C           8.5991   -4.8752    0.0000 C.3     1  UNL1        0.1344
     57 C           7.7331   -5.3752    0.0000 C.3     1  UNL1        0.1174
     58 C           6.8671   -4.8752    0.0000 C.3     1  UNL1        0.1162
     59 C           6.8671   -3.8752    0.0000 C.3     1  UNL1        0.0877
     60 C           6.0010   -3.3752    0.0000 C.3     1  UNL1       -0.0360
     61 C           5.1350   -4.8752    0.0000 C.3     1  UNL1        0.1884
     62 C           4.2690   -5.3752    0.0000 C.3     1  UNL1        0.1341
     63 C           3.4030   -4.8752    0.0000 C.3     1  UNL1        0.1141
     64 C           3.4030   -3.8752    0.0000 C.3     1  UNL1        0.1119
     65 C           4.2690   -3.3752    0.0000 C.3     1  UNL1        0.1130
     66 C           8.5991   -6.8752    0.0000 C.3     1  UNL1        0.0370
     67 C           4.2690   -2.3752    0.0000 C.3     1  UNL1        0.0730
     68 H          16.4177    4.8274    0.0000 H       1  UNL1        0.0335
     69 H          16.4171    4.6774    0.0000 H       1  UNL1        0.0339
     70 H          17.4090    3.6286    0.0000 H       1  UNL1        0.0626
     71 H          16.0053    3.4440    0.0000 H       1  UNL1        0.0622
     72 H          18.3143    5.3136    0.0000 H       1  UNL1        0.0384
     73 H          16.7674    7.3429    0.0000 H       1  UNL1        0.0293
     74 H          16.1479    6.7913    0.0000 H       1  UNL1        0.0293
     75 H          18.3435    7.0116    0.0000 H       1  UNL1        0.0273
     76 H          17.6268    7.4291    0.0000 H       1  UNL1        0.0273
     77 H          15.1977    6.2616    0.0000 H       1  UNL1        0.0311
     78 H          14.3995    6.2739    0.0000 H       1  UNL1        0.0311
     79 H          17.9673    4.2095    0.0000 H       1  UNL1        0.0237
     80 H          18.8151    4.4332    0.0000 H       1  UNL1        0.0237
     81 H          18.5914    5.2810    0.0000 H       1  UNL1        0.0237
     82 H          15.0245    2.0597    0.0000 H       1  UNL1        0.0274
     83 H          15.4130    2.7571    0.0000 H       1  UNL1        0.0274
     84 H          13.3488    5.5971    0.0000 H       1  UNL1        0.0572
     85 H          15.3434    2.6892    0.0000 H       1  UNL1        0.0238
     86 H          16.1894    2.9194    0.0000 H       1  UNL1        0.0238
     87 H          15.9592    3.7655    0.0000 H       1  UNL1        0.0238
     88 H          12.7266    4.2943    0.0000 H       1  UNL1        0.0314
     89 H          12.3222    3.6060    0.0000 H       1  UNL1        0.0314
     90 H          15.6894    6.8752    0.0000 H       1  UNL1        0.2102
     91 H          12.9309    1.7748    0.0000 H       1  UNL1        0.0329
     92 H          13.4755    1.6084    0.0000 H       1  UNL1        0.0269
     93 H          14.2737    1.6146    0.0000 H       1  UNL1        0.0269
     94 H          18.2731    3.1252    0.0000 H       1  UNL1        0.2099
     95 H          17.0753    2.4398    0.0000 H       1  UNL1        0.2099
     96 H          12.0632    2.9748    0.0000 H       1  UNL1        0.0600
     97 H          20.2631    6.0287    0.0000 H       1  UNL1        0.0306
     98 H          20.2191    6.9044    0.0000 H       1  UNL1        0.0306
     99 H          19.3434    6.8604    0.0000 H       1  UNL1        0.0306
    100 H          12.2753    0.5422    0.0000 H       1  UNL1        0.0316
    101 H          12.6738    1.2324    0.0000 H       1  UNL1        0.0316
    102 H          11.7341    0.3148    0.0000 H       1  UNL1        0.0623
    103 H          10.3312    2.7448    0.0000 H       1  UNL1        0.0620
    104 H           9.7942    1.4348    0.0000 H       1  UNL1        0.0649
    105 H           9.7751    3.1617    0.0000 H       1  UNL1        0.0255
    106 H           8.9282    2.9348    0.0000 H       1  UNL1        0.0255
    107 H           9.1551    2.0878    0.0000 H       1  UNL1        0.0255
    108 H          10.0021   -0.0652    0.0000 H       1  UNL1        0.0910
    109 H          11.7532   -1.4122    0.0000 H       1  UNL1        0.0524
    110 H          12.6002   -1.1852    0.0000 H       1  UNL1        0.0524
    111 H          12.3732   -0.3383    0.0000 H       1  UNL1        0.0524
    112 H          10.9417   -0.9829    0.0000 H       1  UNL1        0.0340
    113 H          10.5432   -0.2926    0.0000 H       1  UNL1        0.0340
    114 H          10.8681   -1.5652    0.0000 H       1  UNL1        0.0624
    115 H           8.0622   -1.5652    0.0000 H       1  UNL1        0.0621
    116 H          10.0021   -2.6852    0.0000 H       1  UNL1        0.0649
    117 H           7.4231   -1.8383    0.0000 H       1  UNL1        0.0255
    118 H           7.1962   -2.6852    0.0000 H       1  UNL1        0.0255
    119 H           8.0431   -2.9122    0.0000 H       1  UNL1        0.0255
    120 H           8.5991   -3.2552    0.0000 H       1  UNL1        0.0938
    121 H          12.3732   -2.4122    0.0000 H       1  UNL1        0.0524
    122 H          12.6002   -1.5652    0.0000 H       1  UNL1        0.0524
    123 H          11.7532   -1.3383    0.0000 H       1  UNL1        0.0524
    124 H           8.5991   -5.4952    0.0000 H       1  UNL1        0.0671
    125 H           7.1962   -5.6852    0.0000 H       1  UNL1        0.0650
    126 H           6.3301   -4.5652    0.0000 H       1  UNL1        0.0650
    127 H           6.8671   -3.2552    0.0000 H       1  UNL1        0.0621
    128 H           6.3110   -2.8383    0.0000 H       1  UNL1        0.0255
    129 H           5.4641   -3.0652    0.0000 H       1  UNL1        0.0255
    130 H           5.6910   -3.9122    0.0000 H       1  UNL1        0.0255
    131 H          10.0021   -5.0652    0.0000 H       1  UNL1        0.2101
    132 H           5.1350   -5.4952    0.0000 H       1  UNL1        0.0938
    133 H           3.7320   -5.6852    0.0000 H       1  UNL1        0.0671
    134 H           2.8660   -4.5652    0.0000 H       1  UNL1        0.0648
    135 H           3.4030   -3.2552    0.0000 H       1  UNL1        0.0647
    136 H           4.8059   -3.0652    0.0000 H       1  UNL1        0.0647
    137 H           8.2891   -7.4122    0.0000 H       1  UNL1        0.0524
    138 H           9.1360   -7.1852    0.0000 H       1  UNL1        0.0524
    139 H           8.9091   -6.3383    0.0000 H       1  UNL1        0.0524
    140 H           4.0569   -1.7926    0.0000 H       1  UNL1        0.0584
    141 H           3.6584   -2.4829    0.0000 H       1  UNL1        0.0584
    142 H           3.7320   -6.6852    0.0000 H       1  UNL1        0.2101
    143 H           2.0000   -5.0652    0.0000 H       1  UNL1        0.2100
    144 H           2.5369   -2.7552    0.0000 H       1  UNL1        0.2100
    145 H           5.1350   -1.2552    0.0000 H       1  UNL1        0.2095
@<TRIPOS>BOND
     1    20     1    1
     2     1    90    1
     3     2    25    1
     4     2    94    1
     5    26     3    1
     6     3    95    1
     7     4    39    2
     8     5    40    1
     9     5    44    1
    10    43     6    1
    11     6    48    1
    12    45     7    1
    13    47     7    1
    14     8    47    1
    15     8    51    1
    16    50     9    1
    17     9    55    1
    18    52    10    1
    19    54    10    1
    20    11    54    1
    21    11    59    1
    22    56    12    1
    23    12   131    1
    24    58    13    1
    25    61    13    1
    26    57    14    1
    27    14    66    1
    28    15    61    1
    29    15    65    1
    30    62    16    1
    31    16   142    1
    32    63    17    1
    33    17   143    1
    34    64    18    1
    35    18   144    1
    36    19    67    1
    37    19   145    1
    38    20    21    1
    39    20    22    1
    40    20    28    1
    41    21    25    1
    42    21    27    1
    43    21    32    1
    44    22    23    1
    45    22    30    1
    46    22    68    1
    47    23    24    1
    48    23    26    1
    49    23    69    1
    50    24    31    1
    51    24    33    1
    52    24    35    1
    53    25    26    1
    54    25    70    1
    55    26    71    1
    56    27    29    1
    57    27    39    1
    58    27    72    1
    59    28    29    1
    60    28    73    1
    61    28    74    1
    62    29    75    1
    63    29    76    1
    64    30    34    1
    65    30    77    1
    66    30    78    1
    67    31    34    2
    68    31    36    1
    69    32    79    1
    70    32    80    1
    71    32    81    1
    72    33    38    1
    73    33    82    1
    74    33    83    1
    75    34    84    1
    76    35    85    1
    77    35    86    1
    78    35    87    1
    79    36    37    1
    80    36    88    1
    81    36    89    1
    82    37    38    1
    83    37    40    1
    84    37    91    1
    85    38    92    1
    86    38    93    1
    87    39    41    1
    88    40    42    1
    89    40    96    1
    90    41    97    1
    91    41    98    1
    92    41    99    1
    93    42    43    1
    94    42   100    1
    95    42   101    1
    96    43    45    1
    97    43   102    1
    98    44    45    1
    99    44    46    1
   100    44   103    1
   101    45   104    1
   102    46   105    1
   103    46   106    1
   104    46   107    1
   105    47    49    1
   106    47   108    1
   107    48   109    1
   108    48   110    1
   109    48   111    1
   110    49    50    1
   111    49   112    1
   112    49   113    1
   113    50    52    1
   114    50   114    1
   115    51    52    1
   116    51    53    1
   117    51   115    1
   118    52   116    1
   119    53   117    1
   120    53   118    1
   121    53   119    1
   122    54    56    1
   123    54   120    1
   124    55   121    1
   125    55   122    1
   126    55   123    1
   127    56    57    1
   128    56   124    1
   129    57    58    1
   130    57   125    1
   131    58    59    1
   132    58   126    1
   133    59    60    1
   134    59   127    1
   135    60   128    1
   136    60   129    1
   137    60   130    1
   138    61    62    1
   139    61   132    1
   140    62    63    1
   141    62   133    1
   142    63    64    1
   143    63   134    1
   144    64    65    1
   145    64   135    1
   146    65    67    1
   147    65   136    1
   148    66   137    1
   149    66   138    1
   150    66   139    1
   151    67   140    1
   152    67   141    1
