@<TRIPOS>MOLECULE
IMPHY017842
 42 43 0 0 0
SMALL
GASTEIGER

@<TRIPOS>ATOM
      1 O           2.8660   -0.5000    0.0000 O.3     1  UNL1       -0.4647
      2 O           3.7320    1.0000    0.0000 O.2     1  UNL1       -0.2453
      3 C           7.1962   -0.0000    0.0000 C.3     1  UNL1       -0.0079
      4 C           8.0901   -0.5347    0.0000 C.3     1  UNL1       -0.0345
      5 C           6.3301   -0.5000    0.0000 C.3     1  UNL1       -0.0366
      6 C           7.1962    1.0000    0.0000 C.2     1  UNL1       -0.0673
      7 C           5.4641   -0.0000    0.0000 C.3     1  UNL1       -0.0086
      8 C           6.3301    1.5000    0.0000 C.3     1  UNL1       -0.0307
      9 C           8.9962   -0.0208    0.0000 C.3     1  UNL1       -0.0462
     10 C           5.4641    1.0000    0.0000 C.3     1  UNL1       -0.0423
     11 C           7.1962   -1.0000    0.0000 C.3     1  UNL1       -0.0556
     12 C           8.9962    1.0208    0.0000 C.3     1  UNL1       -0.0342
     13 C           8.0901    1.5346    0.0000 C.2     1  UNL1       -0.0842
     14 C           8.0785   -1.5346    0.0000 C.3     1  UNL1       -0.0616
     15 C           4.5981   -0.5000    0.0000 C.2     1  UNL1        0.0326
     16 C           3.7320   -0.0000    0.0000 C.2     1  UNL1        0.3346
     17 C           4.5981   -1.5000    0.0000 C.2     1  UNL1       -0.0885
     18 C           2.0000   -0.0000    0.0000 C.3     1  UNL1        0.0820
     19 H           8.6240   -0.8499    0.0000 H       1  UNL1        0.0307
     20 H           5.9316   -0.9750    0.0000 H       1  UNL1        0.0279
     21 H           6.7287   -0.9750    0.0000 H       1  UNL1        0.0279
     22 H           5.4641   -0.6200    0.0000 H       1  UNL1        0.0351
     23 H           6.7287    1.9749    0.0000 H       1  UNL1        0.0310
     24 H           5.9316    1.9749    0.0000 H       1  UNL1        0.0310
     25 H           9.2052   -0.6045    0.0000 H       1  UNL1        0.0271
     26 H           9.6070    0.0852    0.0000 H       1  UNL1        0.0271
     27 H           5.2520    1.5826    0.0000 H       1  UNL1        0.0274
     28 H           4.8535    0.8923    0.0000 H       1  UNL1        0.0274
     29 H           6.5762   -1.0000    0.0000 H       1  UNL1        0.0238
     30 H           7.1962   -1.6200    0.0000 H       1  UNL1        0.0238
     31 H           7.8162   -1.0000    0.0000 H       1  UNL1        0.0238
     32 H           9.6070    0.9147    0.0000 H       1  UNL1        0.0307
     33 H           9.2052    1.6045    0.0000 H       1  UNL1        0.0307
     34 H           8.0829    2.1546    0.0000 H       1  UNL1        0.0572
     35 H           7.4586   -1.5275    0.0000 H       1  UNL1        0.0233
     36 H           8.0714   -2.1546    0.0000 H       1  UNL1        0.0233
     37 H           8.6985   -1.5418    0.0000 H       1  UNL1        0.0233
     38 H           4.0611   -1.8100    0.0000 H       1  UNL1        0.0540
     39 H           5.1350   -1.8100    0.0000 H       1  UNL1        0.0540
     40 H           2.3100    0.5369    0.0000 H       1  UNL1        0.0661
     41 H           1.4631    0.3100    0.0000 H       1  UNL1        0.0661
     42 H           1.6900   -0.5370    0.0000 H       1  UNL1        0.0661
@<TRIPOS>BOND
     1     1    16    1
     2     1    18    1
     3     2    16    2
     4     3     4    1
     5     3     5    1
     6     3     6    1
     7     3    11    1
     8     4     9    1
     9     4    14    1
    10     4    19    1
    11     5     7    1
    12     5    20    1
    13     5    21    1
    14     6     8    1
    15     6    13    2
    16     7    10    1
    17     7    15    1
    18     7    22    1
    19     8    10    1
    20     8    23    1
    21     8    24    1
    22     9    12    1
    23     9    25    1
    24     9    26    1
    25    10    27    1
    26    10    28    1
    27    11    29    1
    28    11    30    1
    29    11    31    1
    30    12    13    1
    31    12    32    1
    32    12    33    1
    33    13    34    1
    34    14    35    1
    35    14    36    1
    36    14    37    1
    37    15    16    1
    38    15    17    2
    39    17    38    1
    40    17    39    1
    41    18    40    1
    42    18    41    1
    43    18    42    1
