@<TRIPOS>MOLECULE
IMPHY007295
 78 81 0 0 0
SMALL
GASTEIGER

@<TRIPOS>ATOM
      1 O           2.5357   -3.6598    0.0000 O.3     1  UNL1       -0.3915
      2 C           7.9288   -1.6074    0.0000 C.3     1  UNL1       -0.0283
      3 C           7.9288   -0.6074    0.0000 C.3     1  UNL1       -0.0079
      4 C           7.0628   -2.1074    0.0000 C.3     1  UNL1       -0.0269
      5 C           8.8750   -0.3027    0.0000 C.3     1  UNL1       -0.0293
      6 C           6.1968   -1.6074    0.0000 C.3     1  UNL1       -0.0104
      7 C           8.8750   -1.9122    0.0000 C.3     1  UNL1       -0.0489
      8 C           5.2868   -2.1143    0.0000 C.3     1  UNL1       -0.0044
      9 C           9.4586   -1.1074    0.0000 C.3     1  UNL1       -0.0489
     10 C           7.0628   -0.1074    0.0000 C.2     1  UNL1       -0.0812
     11 C           7.0789   -3.1489    0.0000 C.3     1  UNL1       -0.0308
     12 C           9.1857    0.6478    0.0000 C.3     1  UNL1       -0.0403
     13 C           6.1968   -0.6074    0.0000 C.2     1  UNL1       -0.0832
     14 C           7.9288    0.3926    0.0000 C.3     1  UNL1       -0.0556
     15 C           5.2787   -3.1559    0.0000 C.2     1  UNL1       -0.0645
     16 C           4.3599   -1.5502    0.0000 C.3     1  UNL1       -0.0410
     17 C           6.1808   -3.6767    0.0000 C.2     1  UNL1       -0.0839
     18 C           5.2945   -1.1143    0.0000 C.3     1  UNL1       -0.0553
     19 C           4.3433   -3.7056    0.0000 C.3     1  UNL1       -0.0051
     20 C          10.1642    0.8540    0.0000 C.3     1  UNL1       -0.0499
     21 C           3.4120   -2.0781    0.0000 C.3     1  UNL1       -0.0258
     22 C           3.4037   -3.1631    0.0000 C.3     1  UNL1        0.0590
     23 C           8.5179    1.3921    0.0000 C.3     1  UNL1       -0.0621
     24 C          10.4749    1.8046    0.0000 C.3     1  UNL1       -0.0497
     25 C          11.4534    2.0108    0.0000 C.3     1  UNL1       -0.0389
     26 C          11.7640    2.9613    0.0000 C.3     1  UNL1       -0.0439
     27 C          12.1212    1.2665    0.0000 C.3     1  UNL1       -0.0528
     28 C          12.7425    3.1675    0.0000 C.3     1  UNL1       -0.0624
     29 C          11.0962    3.7056    0.0000 C.3     1  UNL1       -0.0624
     30 C          13.0997    1.4727    0.0000 C.3     1  UNL1       -0.0650
     31 H           8.0188   -2.4527    0.0000 H       1  UNL1        0.0312
     32 H           7.8022   -2.5267    0.0000 H       1  UNL1        0.0313
     33 H           9.7148   -0.1708    0.0000 H       1  UNL1        0.0312
     34 H           6.9329   -1.1824    0.0000 H       1  UNL1        0.0354
     35 H           8.6240   -2.4791    0.0000 H       1  UNL1        0.0268
     36 H           9.4124   -2.2214    0.0000 H       1  UNL1        0.0268
     37 H           9.9195   -1.5222    0.0000 H       1  UNL1        0.0268
     38 H           9.9195   -0.6927    0.0000 H       1  UNL1        0.0268
     39 H           7.0628    0.5126    0.0000 H       1  UNL1        0.0575
     40 H           7.2969   -3.7293    0.0000 H       1  UNL1        0.0310
     41 H           7.6880   -3.0334    0.0000 H       1  UNL1        0.0310
     42 H           9.3783    1.2371    0.0000 H       1  UNL1        0.0301
     43 H           5.6598   -0.2974    0.0000 H       1  UNL1        0.0572
     44 H           8.5488    0.3926    0.0000 H       1  UNL1        0.0238
     45 H           7.9288    1.0126    0.0000 H       1  UNL1        0.0238
     46 H           7.3088    0.3926    0.0000 H       1  UNL1        0.0238
     47 H           4.7681   -1.0835    0.0000 H       1  UNL1        0.0275
     48 H           3.9700   -1.0682    0.0000 H       1  UNL1        0.0275
     49 H           6.1832   -4.2967    0.0000 H       1  UNL1        0.0572
     50 H           5.9145   -1.1191    0.0000 H       1  UNL1        0.0238
     51 H           5.2993   -0.4943    0.0000 H       1  UNL1        0.0238
     52 H           4.6745   -1.1095    0.0000 H       1  UNL1        0.0238
     53 H           3.9460   -4.1816    0.0000 H       1  UNL1        0.0335
     54 H           4.7443   -4.1785    0.0000 H       1  UNL1        0.0335
     55 H          10.1848    0.2344    0.0000 H       1  UNL1        0.0268
     56 H          10.7780    0.7667    0.0000 H       1  UNL1        0.0268
     57 H           3.2075   -1.4929    0.0000 H       1  UNL1        0.0290
     58 H           2.8004   -2.1795    0.0000 H       1  UNL1        0.0290
     59 H           3.4025   -3.7831    0.0000 H       1  UNL1        0.0596
     60 H           8.9793    1.8062    0.0000 H       1  UNL1        0.0233
     61 H           8.1038    1.8536    0.0000 H       1  UNL1        0.0233
     62 H           8.0564    0.9781    0.0000 H       1  UNL1        0.0233
     63 H          10.4543    2.4242    0.0000 H       1  UNL1        0.0268
     64 H           9.8611    1.8919    0.0000 H       1  UNL1        0.0268
     65 H          12.3210    1.5493    0.0000 H       1  UNL1        0.0303
     66 H           2.0000   -3.3477    0.0000 H       1  UNL1        0.2098
     67 H          11.9567    3.5506    0.0000 H       1  UNL1        0.0298
     68 H          11.5949    0.9388    0.0000 H       1  UNL1        0.0265
     69 H          12.3525    0.6912    0.0000 H       1  UNL1        0.0265
     70 H          12.8704    2.5608    0.0000 H       1  UNL1        0.0232
     71 H          13.3492    3.2954    0.0000 H       1  UNL1        0.0232
     72 H          12.6147    3.7742    0.0000 H       1  UNL1        0.0232
     73 H          11.5577    4.1197    0.0000 H       1  UNL1        0.0232
     74 H          10.6821    4.1671    0.0000 H       1  UNL1        0.0232
     75 H          10.6347    3.2915    0.0000 H       1  UNL1        0.0232
     76 H          13.2276    0.8660    0.0000 H       1  UNL1        0.0230
     77 H          13.7064    1.6006    0.0000 H       1  UNL1        0.0230
     78 H          12.9719    2.0794    0.0000 H       1  UNL1        0.0230
@<TRIPOS>BOND
     1    22     1    1
     2     1    66    1
     3     2     3    1
     4     2     4    1
     5     2     7    1
     6     2    31    1
     7     3     5    1
     8     3    10    1
     9     3    14    1
    10     4     6    1
    11     4    11    1
    12     4    32    1
    13     5     9    1
    14     5    12    1
    15     5    33    1
    16     6     8    1
    17     6    13    1
    18     6    34    1
    19     7     9    1
    20     7    35    1
    21     7    36    1
    22     8    15    1
    23     8    16    1
    24     8    18    1
    25     9    37    1
    26     9    38    1
    27    10    13    2
    28    10    39    1
    29    11    17    1
    30    11    40    1
    31    11    41    1
    32    12    20    1
    33    12    23    1
    34    12    42    1
    35    13    43    1
    36    14    44    1
    37    14    45    1
    38    14    46    1
    39    15    17    2
    40    15    19    1
    41    16    21    1
    42    16    47    1
    43    16    48    1
    44    17    49    1
    45    18    50    1
    46    18    51    1
    47    18    52    1
    48    19    22    1
    49    19    53    1
    50    19    54    1
    51    20    24    1
    52    20    55    1
    53    20    56    1
    54    21    22    1
    55    21    57    1
    56    21    58    1
    57    22    59    1
    58    23    60    1
    59    23    61    1
    60    23    62    1
    61    25    24    1
    62    24    63    1
    63    24    64    1
    64    25    26    1
    65    25    27    1
    66    25    65    1
    67    26    28    1
    68    26    29    1
    69    26    67    1
    70    27    30    1
    71    27    68    1
    72    27    69    1
    73    28    70    1
    74    28    71    1
    75    28    72    1
    76    29    73    1
    77    29    74    1
    78    29    75    1
    79    30    76    1
    80    30    77    1
    81    30    78    1
