@<TRIPOS>MOLECULE
IMPHY000058
 44 48 0 0 0
SMALL
GASTEIGER

@<TRIPOS>ATOM
      1 O           7.0301    0.5957    0.0000 O.3     1  UNL1       -0.4824
      2 O          10.5661    0.5679    0.0000 O.3     1  UNL1       -0.4815
      3 O           7.0416   -2.4736    0.0000 O.2     1  UNL1       -0.2918
      4 O           2.5805    0.2908    0.0000 O.3     1  UNL1       -0.4526
      5 O           2.5867    1.9002    0.0000 O.3     1  UNL1       -0.4526
      6 C           6.1240    0.0818    0.0000 C.3     1  UNL1        0.1323
      7 C           6.1240   -0.9598    0.0000 C.3     1  UNL1        0.0519
      8 C          10.5741    1.6095    0.0000 C.3     1  UNL1        0.1235
      9 C           7.9240    0.0610    0.0000 C.ar    1  UNL1        0.1425
     10 C           8.7901    0.5610    0.0000 C.ar    1  UNL1        0.0589
     11 C           7.9240   -0.9390    0.0000 C.ar    1  UNL1        0.0600
     12 C           9.6561    0.0610    0.0000 C.ar    1  UNL1        0.1324
     13 C           5.2599    0.5852    0.0000 C.ar    1  UNL1       -0.0033
     14 C           7.0301   -1.4736    0.0000 C.2     1  UNL1        0.1705
     15 C           9.6720    2.1303    0.0000 C.2     1  UNL1       -0.0408
     16 C           8.7740    1.6025    0.0000 C.2     1  UNL1       -0.0478
     17 C           8.7901   -1.4390    0.0000 C.ar    1  UNL1       -0.0442
     18 C           9.6561   -0.9390    0.0000 C.ar    1  UNL1       -0.0184
     19 C          11.0774    2.4736    0.0000 C.3     1  UNL1       -0.0215
     20 C          11.5741    1.6056    0.0000 C.3     1  UNL1       -0.0215
     21 C           4.3920    0.0885    0.0000 C.ar    1  UNL1       -0.0095
     22 C           5.2638    1.5852    0.0000 C.ar    1  UNL1       -0.0514
     23 C           3.5279    0.5919    0.0000 C.ar    1  UNL1        0.1666
     24 C           3.5317    1.5918    0.0000 C.ar    1  UNL1        0.1662
     25 C           4.3997    2.0885    0.0000 C.ar    1  UNL1       -0.0158
     26 C           2.0000    1.0978    0.0000 C.3     1  UNL1        0.2332
     27 H           6.1276    0.7018    0.0000 H       1  UNL1        0.0789
     28 H           5.5132   -0.8537    0.0000 H       1  UNL1        0.0385
     29 H           5.9150   -1.5435    0.0000 H       1  UNL1        0.0385
     30 H           9.6696    2.7503    0.0000 H       1  UNL1        0.0611
     31 H           8.2335    1.9063    0.0000 H       1  UNL1        0.0624
     32 H           8.7901   -2.0590    0.0000 H       1  UNL1        0.0627
     33 H          10.1930   -1.2490    0.0000 H       1  UNL1        0.0654
     34 H          11.5717    0.9856    0.0000 H       1  UNL1        0.0271
     35 H          12.1941    1.6032    0.0000 H       1  UNL1        0.0271
     36 H          11.5765    2.2256    0.0000 H       1  UNL1        0.0271
     37 H          11.6132    2.1615    0.0000 H       1  UNL1        0.0271
     38 H          11.3895    3.0093    0.0000 H       1  UNL1        0.0271
     39 H          10.5417    2.7856    0.0000 H       1  UNL1        0.0271
     40 H           4.3896   -0.5315    0.0000 H       1  UNL1        0.0659
     41 H           5.8019    1.8931    0.0000 H       1  UNL1        0.0623
     42 H           4.4021    2.7085    0.0000 H       1  UNL1        0.0655
     43 H           1.5407    1.5143    0.0000 H       1  UNL1        0.1166
     44 H           1.5375    0.6848    0.0000 H       1  UNL1        0.1166
@<TRIPOS>BOND
     1     1     6    1
     2     1     9    1
     3     2     8    1
     4     2    12    1
     5     3    14    2
     6     4    23    1
     7     4    26    1
     8     5    24    1
     9     5    26    1
    10     6     7    1
    11     6    13    1
    12     6    27    1
    13     7    14    1
    14     7    28    1
    15     7    29    1
    16     8    15    1
    17     8    19    1
    18     8    20    1
    19     9    10   ar
    20     9    11   ar
    21    10    12   ar
    22    10    16    1
    23    11    14    1
    24    11    17   ar
    25    12    18   ar
    26    13    21   ar
    27    13    22   ar
    28    15    16    2
    29    15    30    1
    30    16    31    1
    31    17    18   ar
    32    17    32    1
    33    18    33    1
    34    19    37    1
    35    19    38    1
    36    19    39    1
    37    20    34    1
    38    20    35    1
    39    20    36    1
    40    21    23   ar
    41    21    40    1
    42    22    25   ar
    43    22    41    1
    44    23    24   ar
    45    24    25   ar
    46    25    42    1
    47    26    43    1
    48    26    44    1
