@<TRIPOS>MOLECULE
IMPHY001115
 108 112 0 0 0
SMALL
GASTEIGER

@<TRIPOS>ATOM
      1 O           6.0010   -2.0000    0.0000 O.3     1  UNL1       -0.3400
      2 O           4.2690   -2.0000    0.0000 O.3     1  UNL1       -0.3405
      3 O           6.0010   -4.0000    0.0000 O.3     1  UNL1       -0.3378
      4 O           6.0010    1.0000    0.0000 O.3     1  UNL1       -0.3394
      5 O           5.1350   -5.5000    0.0000 O.3     1  UNL1       -0.3405
      6 O           4.2690   -5.0000    0.0000 O.3     1  UNL1       -0.3864
      7 O           2.5369   -4.0000    0.0000 O.3     1  UNL1       -0.3865
      8 O           7.7331   -1.0000    0.0000 O.3     1  UNL1       -0.3864
      9 O           4.2690   -1.0000    0.0000 O.3     1  UNL1       -0.3841
     10 O           4.2690    1.0000    0.0000 O.3     1  UNL1       -0.3484
     11 O           7.7331   -5.0000    0.0000 O.3     1  UNL1       -0.3841
     12 O           7.7331   -7.0000    0.0000 O.3     1  UNL1       -0.3864
     13 O           6.0010   -8.0000    0.0000 O.3     1  UNL1       -0.3865
     14 O           2.5369   -1.0000    0.0000 O.3     1  UNL1       -0.3924
     15 O           7.7331    2.0000    0.0000 O.3     1  UNL1       -0.4589
     16 O           3.4030   -6.5000    0.0000 O.3     1  UNL1       -0.3924
     17 O           9.4651    2.0000    0.0000 O.2     1  UNL1       -0.2456
     18 O           5.1350    5.5000    0.0000 O.3     1  UNL1       -0.5033
     19 O           3.4030    6.5000    0.0000 O.3     1  UNL1       -0.4915
     20 O          11.1972    7.0000    0.0000 O.3     1  UNL1       -0.4914
     21 O           9.4651    8.0000    0.0000 O.3     1  UNL1       -0.5033
     22 C           5.1350   -3.5000    0.0000 C.3     1  UNL1        0.1406
     23 C           5.1350   -2.5000    0.0000 C.3     1  UNL1        0.1888
     24 C           4.2690   -4.0000    0.0000 C.3     1  UNL1        0.1144
     25 C           6.0010   -1.0000    0.0000 C.3     1  UNL1        0.1206
     26 C           3.4030   -3.5000    0.0000 C.3     1  UNL1        0.1119
     27 C           3.4030   -2.5000    0.0000 C.3     1  UNL1        0.1130
     28 C           6.8671   -0.5000    0.0000 C.3     1  UNL1        0.1133
     29 C           5.1350   -0.5000    0.0000 C.3     1  UNL1        0.1345
     30 C           6.0010   -5.0000    0.0000 C.3     1  UNL1        0.1885
     31 C           6.8671    0.5000    0.0000 C.3     1  UNL1        0.1240
     32 C           6.8671   -5.5000    0.0000 C.3     1  UNL1        0.1341
     33 C           5.1350    0.5000    0.0000 C.3     1  UNL1        0.1880
     34 C           6.8671   -6.5000    0.0000 C.3     1  UNL1        0.1141
     35 C           6.0010   -7.0000    0.0000 C.3     1  UNL1        0.1119
     36 C           5.1350   -6.5000    0.0000 C.3     1  UNL1        0.1130
     37 C           2.5369   -2.0000    0.0000 C.3     1  UNL1        0.0730
     38 C           7.7331    1.0000    0.0000 C.3     1  UNL1        0.1215
     39 C           4.2690   -7.0000    0.0000 C.3     1  UNL1        0.0730
     40 C           4.2690    2.0000    0.0000 C.3     1  UNL1        0.0547
     41 C           3.4030    2.5000    0.0000 C.3     1  UNL1       -0.0039
     42 C           8.5991    2.5000    0.0000 C.2     1  UNL1        0.3320
     43 C           3.4030    3.5000    0.0000 C.ar    1  UNL1       -0.0415
     44 C           8.5991    3.5000    0.0000 C.2     1  UNL1        0.0231
     45 C           4.2690    4.0000    0.0000 C.ar    1  UNL1       -0.0133
     46 C           2.5369    4.0000    0.0000 C.ar    1  UNL1       -0.0548
     47 C           4.2690    5.0000    0.0000 C.ar    1  UNL1        0.1587
     48 C           2.5369    5.0000    0.0000 C.ar    1  UNL1       -0.0161
     49 C           9.4651    4.0000    0.0000 C.2     1  UNL1       -0.0477
     50 C           3.4030    5.5000    0.0000 C.ar    1  UNL1        0.1613
     51 C           9.4651    5.0000    0.0000 C.ar    1  UNL1       -0.0211
     52 C          10.3312    5.5000    0.0000 C.ar    1  UNL1       -0.0092
     53 C           8.5991    5.5000    0.0000 C.ar    1  UNL1       -0.0509
     54 C           2.5369    7.0000    0.0000 C.3     1  UNL1        0.0790
     55 C          10.3312    6.5000    0.0000 C.ar    1  UNL1        0.1618
     56 C           8.5991    6.5000    0.0000 C.ar    1  UNL1       -0.0160
     57 C           9.4651    7.0000    0.0000 C.ar    1  UNL1        0.1585
     58 C          12.0632    6.5000    0.0000 C.3     1  UNL1        0.0790
     59 H           5.1350   -4.1200    0.0000 H       1  UNL1        0.0675
     60 H           5.1350   -1.8800    0.0000 H       1  UNL1        0.0938
     61 H           3.7320   -4.3100    0.0000 H       1  UNL1        0.0648
     62 H           6.5380   -1.3100    0.0000 H       1  UNL1        0.0651
     63 H           2.8660   -3.1900    0.0000 H       1  UNL1        0.0647
     64 H           3.4030   -1.8800    0.0000 H       1  UNL1        0.0647
     65 H           7.4040   -0.1900    0.0000 H       1  UNL1        0.0647
     66 H           5.1350   -1.1200    0.0000 H       1  UNL1        0.0671
     67 H           6.5380   -4.6900    0.0000 H       1  UNL1        0.0938
     68 H           6.8671    1.1200    0.0000 H       1  UNL1        0.0658
     69 H           7.4040   -5.8100    0.0000 H       1  UNL1        0.0671
     70 H           5.1350    1.1200    0.0000 H       1  UNL1        0.0937
     71 H           6.8671   -7.1200    0.0000 H       1  UNL1        0.0648
     72 H           5.4641   -7.3100    0.0000 H       1  UNL1        0.0647
     73 H           4.5981   -6.1900    0.0000 H       1  UNL1        0.0647
     74 H           1.9264   -1.8923    0.0000 H       1  UNL1        0.0584
     75 H           2.3249   -2.5826    0.0000 H       1  UNL1        0.0584
     76 H           7.9451    0.4174    0.0000 H       1  UNL1        0.0725
     77 H           8.3437    1.1077    0.0000 H       1  UNL1        0.0725
     78 H           3.7320   -5.3100    0.0000 H       1  UNL1        0.2100
     79 H           2.0000   -3.6900    0.0000 H       1  UNL1        0.2100
     80 H           3.8705   -7.4750    0.0000 H       1  UNL1        0.0584
     81 H           4.6675   -7.4750    0.0000 H       1  UNL1        0.0584
     82 H           8.2700   -0.6900    0.0000 H       1  UNL1        0.2100
     83 H           3.7320   -0.6900    0.0000 H       1  UNL1        0.2101
     84 H           8.2700   -5.3100    0.0000 H       1  UNL1        0.2101
     85 H           7.7331   -7.6200    0.0000 H       1  UNL1        0.2100
     86 H           5.4641   -8.3100    0.0000 H       1  UNL1        0.2100
     87 H           4.8796    1.8923    0.0000 H       1  UNL1        0.0564
     88 H           4.4810    2.5826    0.0000 H       1  UNL1        0.0564
     89 H           2.0000   -0.6900    0.0000 H       1  UNL1        0.2095
     90 H           2.7924    2.6077    0.0000 H       1  UNL1        0.0335
     91 H           3.1909    1.9174    0.0000 H       1  UNL1        0.0335
     92 H           2.8660   -6.8100    0.0000 H       1  UNL1        0.2095
     93 H           8.0622    3.8100    0.0000 H       1  UNL1        0.0689
     94 H           4.8059    3.6900    0.0000 H       1  UNL1        0.0658
     95 H           2.0000    3.6900    0.0000 H       1  UNL1        0.0621
     96 H           2.0000    5.3100    0.0000 H       1  UNL1        0.0655
     97 H          10.0021    3.6900    0.0000 H       1  UNL1        0.0626
     98 H           5.1350    6.1200    0.0000 H       1  UNL1        0.2923
     99 H          10.8681    5.1900    0.0000 H       1  UNL1        0.0661
    100 H           8.0622    5.1900    0.0000 H       1  UNL1        0.0625
    101 H           2.8469    7.5369    0.0000 H       1  UNL1        0.0660
    102 H           2.0000    7.3100    0.0000 H       1  UNL1        0.0660
    103 H           2.2269    6.4631    0.0000 H       1  UNL1        0.0660
    104 H           8.0622    6.8100    0.0000 H       1  UNL1        0.0655
    105 H           8.9282    8.3100    0.0000 H       1  UNL1        0.2923
    106 H          11.7532    5.9631    0.0000 H       1  UNL1        0.0660
    107 H          12.6002    6.1900    0.0000 H       1  UNL1        0.0660
    108 H          12.3732    7.0369    0.0000 H       1  UNL1        0.0660
@<TRIPOS>BOND
     1    23     1    1
     2    25     1    1
     3     2    23    1
     4     2    27    1
     5    22     3    1
     6    30     3    1
     7     4    31    1
     8     4    33    1
     9     5    30    1
    10     5    36    1
    11    24     6    1
    12     6    78    1
    13    26     7    1
    14     7    79    1
    15    28     8    1
    16     8    82    1
    17    29     9    1
    18     9    83    1
    19    33    10    1
    20    10    40    1
    21    32    11    1
    22    11    84    1
    23    34    12    1
    24    12    85    1
    25    35    13    1
    26    13    86    1
    27    14    37    1
    28    14    89    1
    29    15    38    1
    30    15    42    1
    31    16    39    1
    32    16    92    1
    33    17    42    2
    34    18    47    1
    35    18    98    1
    36    19    50    1
    37    19    54    1
    38    20    55    1
    39    20    58    1
    40    21    57    1
    41    21   105    1
    42    22    23    1
    43    22    24    1
    44    22    59    1
    45    23    60    1
    46    24    26    1
    47    24    61    1
    48    25    28    1
    49    25    29    1
    50    25    62    1
    51    26    27    1
    52    26    63    1
    53    27    37    1
    54    27    64    1
    55    28    31    1
    56    28    65    1
    57    29    33    1
    58    29    66    1
    59    30    32    1
    60    30    67    1
    61    31    38    1
    62    31    68    1
    63    32    34    1
    64    32    69    1
    65    33    70    1
    66    34    35    1
    67    34    71    1
    68    35    36    1
    69    35    72    1
    70    36    39    1
    71    36    73    1
    72    37    74    1
    73    37    75    1
    74    38    76    1
    75    38    77    1
    76    39    80    1
    77    39    81    1
    78    40    41    1
    79    40    87    1
    80    40    88    1
    81    41    43    1
    82    41    90    1
    83    41    91    1
    84    42    44    1
    85    43    45   ar
    86    43    46   ar
    87    44    49    2
    88    44    93    1
    89    45    47   ar
    90    45    94    1
    91    46    48   ar
    92    46    95    1
    93    47    50   ar
    94    48    50   ar
    95    48    96    1
    96    49    51    1
    97    49    97    1
    98    51    52   ar
    99    51    53   ar
   100    52    55   ar
   101    52    99    1
   102    53    56   ar
   103    53   100    1
   104    54   101    1
   105    54   102    1
   106    54   103    1
   107    55    57   ar
   108    56    57   ar
   109    56   104    1
   110    58   106    1
   111    58   107    1
   112    58   108    1
