@<TRIPOS>MOLECULE
IMPHY005455
 52 55 0 0 0
SMALL
GASTEIGER

@<TRIPOS>ATOM
      1 O           5.1350   -1.0000    0.0000 O.3     1  UNL1       -0.3609
      2 O           2.5369   -0.5000    0.0000 O.3     1  UNL1       -0.3862
      3 O           2.5369   -2.5000    0.0000 O.3     1  UNL1       -0.3865
      4 O           4.2690   -3.5000    0.0000 O.3     1  UNL1       -0.3865
      5 O           6.0290    0.4653    0.0000 O.2     1  UNL1       -0.4540
      6 O           6.0010   -3.5000    0.0000 O.3     1  UNL1       -0.3924
      7 O           2.5369    0.5000    0.0000 O.3     1  UNL1       -0.5062
      8 O           4.2690    3.5000    0.0000 O.3     1  UNL1       -0.5058
      9 O           6.0174    3.5346    0.0000 O.2     1  UNL1       -0.2869
     10 O           8.6555   -2.0275    0.0000 O.3     1  UNL1       -0.5033
     11 O          10.3914   -1.0341    0.0000 O.3     1  UNL1       -0.5033
     12 C           3.4030   -1.0000    0.0000 C.3     1  UNL1        0.1139
     13 C           3.4030   -2.0000    0.0000 C.3     1  UNL1        0.1121
     14 C           4.2690   -0.5000    0.0000 C.3     1  UNL1        0.1193
     15 C           4.2690   -2.5000    0.0000 C.3     1  UNL1        0.1117
     16 C           5.1350   -2.0000    0.0000 C.3     1  UNL1        0.1108
     17 C           4.2690    0.5000    0.0000 C.ar    1  UNL1        0.0682
     18 C           6.0010   -2.5000    0.0000 C.3     1  UNL1        0.0729
     19 C           5.1350    1.0000    0.0000 C.ar    1  UNL1        0.1520
     20 C           3.4030    1.0000    0.0000 C.ar    1  UNL1        0.1296
     21 C           5.1350    2.0000    0.0000 C.ar    1  UNL1        0.1058
     22 C           3.4030    2.0000    0.0000 C.ar    1  UNL1        0.0226
     23 C           4.2690    2.5000    0.0000 C.ar    1  UNL1        0.1347
     24 C           6.0290    2.5347    0.0000 C.ar    1  UNL1        0.1966
     25 C           6.9350    0.9792    0.0000 C.ar    1  UNL1        0.1394
     26 C           6.9350    2.0208    0.0000 C.ar    1  UNL1        0.0288
     27 C           7.7991    0.4758    0.0000 C.ar    1  UNL1        0.0211
     28 C           7.7953   -0.5241    0.0000 C.ar    1  UNL1       -0.0059
     29 C           8.6671    0.9725    0.0000 C.ar    1  UNL1       -0.0474
     30 C           8.6594   -1.0275    0.0000 C.ar    1  UNL1        0.1589
     31 C           9.5312    0.4692    0.0000 C.ar    1  UNL1       -0.0159
     32 C           9.5273   -0.5308    0.0000 C.ar    1  UNL1        0.1583
     33 H           3.4030   -0.3800    0.0000 H       1  UNL1        0.0649
     34 H           3.4030   -2.6200    0.0000 H       1  UNL1        0.0647
     35 H           5.0051   -0.0750    0.0000 H       1  UNL1        0.0676
     36 H           4.8059   -2.8100    0.0000 H       1  UNL1        0.0647
     37 H           5.6720   -1.6900    0.0000 H       1  UNL1        0.0646
     38 H           6.6116   -2.6077    0.0000 H       1  UNL1        0.0584
     39 H           6.2131   -1.9174    0.0000 H       1  UNL1        0.0584
     40 H           2.0000   -0.8100    0.0000 H       1  UNL1        0.2100
     41 H           2.5369   -3.1200    0.0000 H       1  UNL1        0.2100
     42 H           3.7320   -3.8100    0.0000 H       1  UNL1        0.2100
     43 H           2.8660    2.3100    0.0000 H       1  UNL1        0.0691
     44 H           6.5380   -3.8100    0.0000 H       1  UNL1        0.2095
     45 H           7.4708    2.3329    0.0000 H       1  UNL1        0.0693
     46 H           2.0000    0.8100    0.0000 H       1  UNL1        0.2922
     47 H           3.7320    3.8100    0.0000 H       1  UNL1        0.2922
     48 H           7.2571   -0.8321    0.0000 H       1  UNL1        0.0662
     49 H           8.6694    1.5925    0.0000 H       1  UNL1        0.0626
     50 H          10.0693    0.7771    0.0000 H       1  UNL1        0.0655
     51 H           9.1912   -2.3395    0.0000 H       1  UNL1        0.2923
     52 H          10.9295   -0.7262    0.0000 H       1  UNL1        0.2923
@<TRIPOS>BOND
     1     1    14    1
     2     1    16    1
     3    12     2    1
     4     2    40    1
     5    13     3    1
     6     3    41    1
     7    15     4    1
     8     4    42    1
     9     5    19   ar
    10     5    25   ar
    11     6    18    1
    12     6    44    1
    13     7    20    1
    14     7    46    1
    15     8    23    1
    16     8    47    1
    17     9    24    2
    18    10    30    1
    19    10    51    1
    20    11    32    1
    21    11    52    1
    22    12    13    1
    23    12    14    1
    24    12    33    1
    25    13    15    1
    26    13    34    1
    27    14    17    1
    28    14    35    1
    29    15    16    1
    30    15    36    1
    31    16    18    1
    32    16    37    1
    33    17    19   ar
    34    17    20   ar
    35    18    38    1
    36    18    39    1
    37    19    21   ar
    38    20    22   ar
    39    21    23   ar
    40    21    24   ar
    41    22    23   ar
    42    22    43    1
    43    24    26   ar
    44    25    26   ar
    45    25    27    1
    46    26    45    1
    47    27    28   ar
    48    27    29   ar
    49    28    30   ar
    50    28    48    1
    51    29    31   ar
    52    29    49    1
    53    30    32   ar
    54    31    32   ar
    55    31    50    1
