@<TRIPOS>MOLECULE
IMPHY005251
 42 43 0 0 0
SMALL
GASTEIGER

@<TRIPOS>ATOM
      1 O           4.2690   -0.5950    0.0000 O.3     1  UNL1       -0.3405
      2 O           6.0010   -0.5950    0.0000 O.3     1  UNL1       -0.3441
      3 O           4.2690   -3.5950    0.0000 O.3     1  UNL1       -0.3864
      4 O           2.5369   -2.5950    0.0000 O.3     1  UNL1       -0.3865
      5 O           6.0010   -2.5950    0.0000 O.3     1  UNL1       -0.3841
      6 O           2.5369    0.4050    0.0000 O.3     1  UNL1       -0.3924
      7 O           7.7331    3.4050    0.0000 O.3     1  UNL1       -0.4914
      8 O           9.4651    2.4050    0.0000 O.3     1  UNL1       -0.5033
      9 C           4.2690   -2.5950    0.0000 C.3     1  UNL1        0.1141
     10 C           3.4030   -2.0950    0.0000 C.3     1  UNL1        0.1119
     11 C           5.1350   -2.0950    0.0000 C.3     1  UNL1        0.1341
     12 C           3.4030   -1.0950    0.0000 C.3     1  UNL1        0.1130
     13 C           5.1350   -1.0950    0.0000 C.3     1  UNL1        0.1883
     14 C           2.5369   -0.5950    0.0000 C.3     1  UNL1        0.0730
     15 C           6.0010    0.4050    0.0000 C.3     1  UNL1        0.0759
     16 C           6.8671    0.9050    0.0000 C.ar    1  UNL1       -0.0181
     17 C           6.8671    1.9050    0.0000 C.ar    1  UNL1       -0.0109
     18 C           7.7331    0.4050    0.0000 C.ar    1  UNL1       -0.0527
     19 C           7.7331    2.4050    0.0000 C.ar    1  UNL1        0.1616
     20 C           8.5991    0.9050    0.0000 C.ar    1  UNL1       -0.0162
     21 C           8.5991    1.9050    0.0000 C.ar    1  UNL1        0.1585
     22 C           6.8671    3.9050    0.0000 C.3     1  UNL1        0.0790
     23 H           4.8059   -2.9050    0.0000 H       1  UNL1        0.0648
     24 H           3.4030   -2.7150    0.0000 H       1  UNL1        0.0647
     25 H           5.6720   -1.7850    0.0000 H       1  UNL1        0.0671
     26 H           3.4030   -0.4750    0.0000 H       1  UNL1        0.0647
     27 H           5.1350   -0.4750    0.0000 H       1  UNL1        0.0938
     28 H           1.9264   -0.4873    0.0000 H       1  UNL1        0.0584
     29 H           2.3249   -1.1776    0.0000 H       1  UNL1        0.0584
     30 H           3.7320   -3.9050    0.0000 H       1  UNL1        0.2100
     31 H           2.0000   -2.2850    0.0000 H       1  UNL1        0.2100
     32 H           6.5380   -2.2850    0.0000 H       1  UNL1        0.2101
     33 H           5.7890    0.9876    0.0000 H       1  UNL1        0.0611
     34 H           5.3905    0.2973    0.0000 H       1  UNL1        0.0611
     35 H           2.0000    0.7150    0.0000 H       1  UNL1        0.2095
     36 H           6.3301    2.2150    0.0000 H       1  UNL1        0.0659
     37 H           7.7331   -0.2150    0.0000 H       1  UNL1        0.0622
     38 H           9.1360    0.5950    0.0000 H       1  UNL1        0.0655
     39 H          10.0021    2.0950    0.0000 H       1  UNL1        0.2923
     40 H           7.1771    4.4419    0.0000 H       1  UNL1        0.0660
     41 H           6.3301    4.2150    0.0000 H       1  UNL1        0.0660
     42 H           6.5571    3.3681    0.0000 H       1  UNL1        0.0660
@<TRIPOS>BOND
     1     1    12    1
     2     1    13    1
     3    13     2    1
     4     2    15    1
     5     9     3    1
     6     3    30    1
     7    10     4    1
     8     4    31    1
     9    11     5    1
    10     5    32    1
    11     6    14    1
    12     6    35    1
    13     7    19    1
    14     7    22    1
    15     8    21    1
    16     8    39    1
    17     9    10    1
    18     9    11    1
    19     9    23    1
    20    10    12    1
    21    10    24    1
    22    11    13    1
    23    11    25    1
    24    12    14    1
    25    12    26    1
    26    13    27    1
    27    14    28    1
    28    14    29    1
    29    15    16    1
    30    15    33    1
    31    15    34    1
    32    16    17   ar
    33    16    18   ar
    34    17    19   ar
    35    17    36    1
    36    18    20   ar
    37    18    37    1
    38    19    21   ar
    39    20    21   ar
    40    20    38    1
    41    22    40    1
    42    22    41    1
    43    22    42    1
