@<TRIPOS>MOLECULE
IMPHY000898
 26 26 0 0 0
SMALL
GASTEIGER

@<TRIPOS>ATOM
      1 O           2.0000    0.0000    0.0000 O.co2   1  UNL1       -0.5442
      2 O           2.8660   -1.5000    0.0000 O.co2   1  UNL1       -0.5442
      3 N           4.5981   -0.5000    0.0000 N.4     1  UNL1        0.2452
      4 C           3.7320    0.0000    0.0000 C.3     1  UNL1        0.0208
      5 C           5.4641    0.0000    0.0000 C.3     1  UNL1       -0.0300
      6 C           3.7320    1.0000    0.0000 C.3     1  UNL1       -0.0040
      7 C           5.4641    1.0000    0.0000 C.3     1  UNL1       -0.0122
      8 C           4.5981    1.5000    0.0000 C.3     1  UNL1       -0.0428
      9 C           4.0981   -1.3660    0.0000 C.3     1  UNL1       -0.0409
     10 C           5.0981   -1.3660    0.0000 C.3     1  UNL1       -0.0409
     11 C           2.8660   -0.5000    0.0000 C.2     1  UNL1        0.0895
     12 H           3.7320   -0.6200    0.0000 H       1  UNL1        0.0916
     13 H           5.6762   -0.5826    0.0000 H       1  UNL1        0.0815
     14 H           6.0747    0.1077    0.0000 H       1  UNL1        0.0815
     15 H           3.5200    1.5826    0.0000 H       1  UNL1        0.0324
     16 H           3.1215    0.8923    0.0000 H       1  UNL1        0.0324
     17 H           6.0747    0.8923    0.0000 H       1  UNL1        0.0317
     18 H           5.6762    1.5826    0.0000 H       1  UNL1        0.0317
     19 H           4.9966    1.9750    0.0000 H       1  UNL1        0.0269
     20 H           4.1996    1.9750    0.0000 H       1  UNL1        0.0269
     21 H           3.5611   -1.0560    0.0000 H       1  UNL1        0.0778
     22 H           3.7881   -1.9030    0.0000 H       1  UNL1        0.0778
     23 H           4.6350   -1.6760    0.0000 H       1  UNL1        0.0778
     24 H           4.5611   -1.6760    0.0000 H       1  UNL1        0.0778
     25 H           5.4081   -1.9030    0.0000 H       1  UNL1        0.0778
     26 H           5.6350   -1.0560    0.0000 H       1  UNL1        0.0778
@<TRIPOS>UNITY_ATOM_ATTR
1 1
charge -1
3 1
charge 1
@<TRIPOS>BOND
     1     1    11   ar
     2     2    11   ar
     3     3     4    1
     4     3     5    1
     5     3     9    1
     6     3    10    1
     7     4     6    1
     8     4    11    1
     9     4    12    1
    10     5     7    1
    11     5    13    1
    12     5    14    1
    13     6     8    1
    14     6    15    1
    15     6    16    1
    16     7     8    1
    17     7    17    1
    18     7    18    1
    19     8    19    1
    20     8    20    1
    21     9    21    1
    22     9    22    1
    23     9    23    1
    24    10    24    1
    25    10    25    1
    26    10    26    1
