@<TRIPOS>MOLECULE
IMPHY012426
 53 55 0 0 0
SMALL
GASTEIGER

@<TRIPOS>ATOM
      1 O           5.1482    2.7238    0.0000 O.3     1  UNL1       -0.4607
      2 O           5.7812   -0.4847    0.0000 O.3     1  UNL1       -0.4597
      3 O           4.6840   -1.9721    0.0000 O.2     1  UNL1       -0.2920
      4 O           6.8881    3.0820    0.0000 O.2     1  UNL1       -0.2505
      5 O           7.4789   -0.1415    0.0000 O.2     1  UNL1       -0.2505
      6 C           4.0984   -0.2951    0.0000 C.3     1  UNL1        0.0738
      7 C           5.2219    1.1138    0.0000 C.3     1  UNL1        0.0468
      8 C           3.1974    0.1388    0.0000 C.3     1  UNL1       -0.0040
      9 C           4.9994    0.1388    0.0000 C.3     1  UNL1        0.1228
     10 C           4.5984    1.8956    0.0000 C.3     1  UNL1        0.1103
     11 C           2.9749    1.1138    0.0000 C.3     1  UNL1       -0.0332
     12 C           3.5984    1.8956    0.0000 C.3     1  UNL1       -0.0121
     13 C           6.1517    1.4655    0.0000 C.3     1  UNL1        0.0632
     14 C           3.9624   -1.2798    0.0000 C.2     1  UNL1        0.1657
     15 C           4.9994   -0.7289    0.0000 C.3     1  UNL1       -0.0485
     16 C           2.5124   -0.5815    0.0000 C.2     1  UNL1       -0.0763
     17 C           6.1062    2.4585    0.0000 C.2     1  UNL1        0.3107
     18 C           2.0000    1.3363    0.0000 C.3     1  UNL1       -0.0617
     19 C           2.9842   -1.4564    0.0000 C.2     1  UNL1       -0.0221
     20 C           7.1449    1.5816    0.0000 C.3     1  UNL1       -0.0518
     21 C           6.7292   -0.8032    0.0000 C.2     1  UNL1        0.3102
     22 C           6.9273   -1.7833    0.0000 C.3     1  UNL1        0.0534
     23 C           7.8752   -2.1018    0.0000 C.3     1  UNL1       -0.0432
     24 C           6.1775   -2.4450    0.0000 C.3     1  UNL1       -0.0523
     25 C           8.0734   -3.0820    0.0000 C.3     1  UNL1       -0.0645
     26 H           5.8627    0.5553    0.0000 H       1  UNL1        0.0381
     27 H           2.3778    0.3639    0.0000 H       1  UNL1        0.0356
     28 H           5.5846    0.3436    0.0000 H       1  UNL1        0.0748
     29 H           4.1966    2.6446    0.0000 H       1  UNL1        0.0738
     30 H           2.7702    1.6990    0.0000 H       1  UNL1        0.0305
     31 H           3.7364    2.5000    0.0000 H       1  UNL1        0.0304
     32 H           3.0398    2.1646    0.0000 H       1  UNL1        0.0304
     33 H           6.2985    0.8631    0.0000 H       1  UNL1        0.0416
     34 H           4.7304   -1.2876    0.0000 H       1  UNL1        0.0241
     35 H           5.5580   -0.9980    0.0000 H       1  UNL1        0.0241
     36 H           5.2684   -0.1703    0.0000 H       1  UNL1        0.0241
     37 H           1.8978   -0.4993    0.0000 H       1  UNL1        0.0576
     38 H           2.1380    1.9407    0.0000 H       1  UNL1        0.0233
     39 H           1.3955    1.4742    0.0000 H       1  UNL1        0.0233
     40 H           1.8620    0.7318    0.0000 H       1  UNL1        0.0233
     41 H           2.7152   -2.0150    0.0000 H       1  UNL1        0.0649
     42 H           7.2169    0.9658    0.0000 H       1  UNL1        0.0238
     43 H           7.7607    1.6536    0.0000 H       1  UNL1        0.0238
     44 H           7.0729    2.1974    0.0000 H       1  UNL1        0.0238
     45 H           6.3396   -1.5859    0.0000 H       1  UNL1        0.0410
     46 H           8.4950   -2.0864    0.0000 H       1  UNL1        0.0270
     47 H           7.9676   -1.4887    0.0000 H       1  UNL1        0.0270
     48 H           5.7673   -1.9802    0.0000 H       1  UNL1        0.0238
     49 H           5.7126   -2.8553    0.0000 H       1  UNL1        0.0238
     50 H           6.5878   -2.9099    0.0000 H       1  UNL1        0.0238
     51 H           7.4657   -3.2048    0.0000 H       1  UNL1        0.0230
     52 H           8.1962   -3.6897    0.0000 H       1  UNL1        0.0230
     53 H           8.6811   -2.9591    0.0000 H       1  UNL1        0.0230
@<TRIPOS>BOND
     1     1    10    1
     2     1    17    1
     3     9     2    1
     4     2    21    1
     5     3    14    2
     6     4    17    2
     7     5    21    2
     8     6     8    1
     9     6     9    1
    10     6    14    1
    11     6    15    1
    12     7     9    1
    13     7    10    1
    14     7    13    1
    15     7    26    1
    16     8    11    1
    17     8    16    1
    18     8    27    1
    19     9    28    1
    20    10    12    1
    21    10    29    1
    22    11    12    1
    23    11    18    1
    24    11    30    1
    25    12    31    1
    26    12    32    1
    27    13    17    1
    28    13    20    1
    29    13    33    1
    30    14    19    1
    31    15    34    1
    32    15    35    1
    33    15    36    1
    34    16    19    2
    35    16    37    1
    36    18    38    1
    37    18    39    1
    38    18    40    1
    39    19    41    1
    40    20    42    1
    41    20    43    1
    42    20    44    1
    43    21    22    1
    44    22    23    1
    45    22    24    1
    46    22    45    1
    47    23    25    1
    48    23    46    1
    49    23    47    1
    50    24    48    1
    51    24    49    1
    52    24    50    1
    53    25    51    1
    54    25    52    1
    55    25    53    1
