@<TRIPOS>MOLECULE
IMPHY010516
 64 69 0 0 0
SMALL
GASTEIGER

@<TRIPOS>ATOM
      1 O           5.6604   -1.5203    0.0000 O.3     1  UNL1       -0.3512
      2 O           8.3550   -2.0619    0.0000 O.3     1  UNL1       -0.4539
      3 O           6.5709    1.9865    0.0000 O.3     1  UNL1       -0.3914
      4 O           4.8225   -2.0480    0.0000 O.2     1  UNL1       -0.2967
      5 O           2.6697    1.8740    0.0000 O.3     1  UNL1       -0.4552
      6 O           7.4490   -3.5827    0.0000 O.2     1  UNL1       -0.2478
      7 O          10.2758    0.7046    0.0000 O.2     1  UNL1       -0.4706
      8 O           2.7595    3.5827    0.0000 O.2     1  UNL1       -0.2456
      9 C           6.5709   -1.0135    0.0000 C.3     1  UNL1        0.1285
     10 C           5.7049   -0.5135    0.0000 C.3     1  UNL1        0.0647
     11 C           7.4369   -0.5135    0.0000 C.3     1  UNL1        0.0445
     12 C           5.7049    0.4865    0.0000 C.3     1  UNL1        0.0091
     13 C           6.5548   -2.0550    0.0000 C.3     1  UNL1        0.1861
     14 C           4.8109    1.0212    0.0000 C.3     1  UNL1       -0.0006
     15 C           7.4369    0.4865    0.0000 C.3     1  UNL1       -0.0146
     16 C           6.5709    0.9865    0.0000 C.3     1  UNL1        0.0605
     17 C           8.3469   -1.0203    0.0000 C.3     1  UNL1        0.1392
     18 C           3.9049    0.5074    0.0000 C.3     1  UNL1        0.0143
     19 C           4.8109   -1.0481    0.0000 C.2     1  UNL1        0.1428
     20 C           6.3550   -1.6392    0.0000 C.3     1  UNL1       -0.0497
     21 C           3.9049   -0.5343    0.0000 C.3     1  UNL1        0.0137
     22 C           8.3029   -0.0135    0.0000 C.3     1  UNL1       -0.0530
     23 C           7.4529   -2.5827    0.0000 C.2     1  UNL1        0.3398
     24 C           2.9594    0.8943    0.0000 C.3     1  UNL1        0.1122
     25 C           5.6808    1.5145    0.0000 C.3     1  UNL1       -0.0553
     26 C           4.9642    2.0313    0.0000 C.2     1  UNL1       -0.0706
     27 C           9.2071   -0.5103    0.0000 C.ar    1  UNL1        0.0310
     28 C           2.0000    0.6121    0.0000 C.3     1  UNL1       -0.0248
     29 C           2.5819   -0.0317    0.0000 C.3     1  UNL1       -0.0248
     30 C           4.2721    2.7827    0.0000 C.2     1  UNL1        0.0191
     31 C          10.1253   -0.9065    0.0000 C.ar    1  UNL1       -0.0172
     32 C           9.3001    0.4853    0.0000 C.ar    1  UNL1        0.0984
     33 C           3.2528    2.7129    0.0000 C.2     1  UNL1        0.3322
     34 C          10.7858   -0.1556    0.0000 C.ar    1  UNL1        0.0921
     35 H           6.4410    0.0615    0.0000 H       1  UNL1        0.0344
     36 H           6.1214   -2.7862    0.0000 H       1  UNL1        0.0743
     37 H           8.0475    0.3789    0.0000 H       1  UNL1        0.0298
     38 H           7.6490    1.0692    0.0000 H       1  UNL1        0.0298
     39 H           7.1078    1.2965    0.0000 H       1  UNL1        0.0597
     40 H           8.8868   -1.3251    0.0000 H       1  UNL1        0.0793
     41 H           3.1991    0.0336    0.0000 H       1  UNL1        0.0352
     42 H           5.8181   -1.9493    0.0000 H       1  UNL1        0.0240
     43 H           6.6650   -2.1761    0.0000 H       1  UNL1        0.0240
     44 H           6.8919   -1.3292    0.0000 H       1  UNL1        0.0240
     45 H           3.2940   -0.4282    0.0000 H       1  UNL1        0.0346
     46 H           3.6958   -1.1180    0.0000 H       1  UNL1        0.0346
     47 H           8.6130   -0.5504    0.0000 H       1  UNL1        0.0237
     48 H           8.8399    0.2965    0.0000 H       1  UNL1        0.0237
     49 H           7.9930    0.5235    0.0000 H       1  UNL1        0.0237
     50 H           5.9866    0.9752    0.0000 H       1  UNL1        0.0238
     51 H           6.2201    1.8204    0.0000 H       1  UNL1        0.0238
     52 H           5.3749    2.0538    0.0000 H       1  UNL1        0.0238
     53 H           5.5571    2.2126    0.0000 H       1  UNL1        0.0580
     54 H           7.1078    2.2965    0.0000 H       1  UNL1        0.2098
     55 H           2.0077    0.2023    0.0000 H       1  UNL1        0.0268
     56 H           2.3478   -0.6058    0.0000 H       1  UNL1        0.0268
     57 H           1.8250    1.2069    0.0000 H       1  UNL1        0.0268
     58 H           1.4052    0.4371    0.0000 H       1  UNL1        0.0268
     59 H           3.1560   -0.2658    0.0000 H       1  UNL1        0.0268
     60 H           2.1750    0.0173    0.0000 H       1  UNL1        0.0268
     61 H           4.5015    3.3587    0.0000 H       1  UNL1        0.0686
     62 H          10.2612   -1.5114    0.0000 H       1  UNL1        0.0653
     63 H           8.8346    0.8948    0.0000 H       1  UNL1        0.1033
     64 H          11.4031   -0.2133    0.0000 H       1  UNL1        0.1029
@<TRIPOS>BOND
     1     9     1    1
     2     1    13    1
     3     2    17    1
     4     2    23    1
     5    16     3    1
     6     3    54    1
     7     4    19    2
     8     5    24    1
     9     5    33    1
    10     6    23    2
    11     7    32   ar
    12     7    34   ar
    13     8    33    2
    14     9    10    1
    15     9    11    1
    16     9    13    1
    17    10    12    1
    18    10    19    1
    19    10    20    1
    20    11    15    1
    21    11    17    1
    22    11    22    1
    23    12    14    1
    24    12    16    1
    25    12    35    1
    26    13    23    1
    27    13    36    1
    28    14    18    1
    29    14    25    1
    30    14    26    1
    31    15    16    1
    32    15    37    1
    33    15    38    1
    34    16    39    1
    35    17    27    1
    36    17    40    1
    37    18    21    1
    38    18    24    1
    39    18    41    1
    40    19    21    1
    41    20    42    1
    42    20    43    1
    43    20    44    1
    44    21    45    1
    45    21    46    1
    46    22    47    1
    47    22    48    1
    48    22    49    1
    49    24    28    1
    50    24    29    1
    51    25    50    1
    52    25    51    1
    53    25    52    1
    54    26    30    2
    55    26    53    1
    56    27    31   ar
    57    27    32   ar
    58    28    57    1
    59    28    58    1
    60    28    60    1
    61    29    55    1
    62    29    56    1
    63    29    59    1
    64    30    33    1
    65    30    61    1
    66    31    34   ar
    67    31    62    1
    68    32    63    1
    69    34    64    1
