@<TRIPOS>MOLECULE
IMPHY017307
 26 25 0 0 0
SMALL
GASTEIGER

@<TRIPOS>ATOM
      1 O           7.1962   -0.2500    0.0000 O.3     1  UNL1       -0.4679
      2 O           6.3301    1.2500    0.0000 O.2     1  UNL1       -0.2509
      3 C           3.7320   -0.2500    0.0000 C.3     1  UNL1       -0.0436
      4 C           4.5981    0.2500    0.0000 C.3     1  UNL1       -0.0404
      5 C           2.8660    0.2500    0.0000 C.3     1  UNL1       -0.0533
      6 C           3.7320   -1.2500    0.0000 C.3     1  UNL1       -0.0624
      7 C           5.4641   -0.2500    0.0000 C.3     1  UNL1        0.0452
      8 C           2.0000   -0.2500    0.0000 C.3     1  UNL1       -0.0650
      9 C           6.3301    0.2500    0.0000 C.2     1  UNL1        0.3068
     10 C           8.0622    0.2500    0.0000 C.3     1  UNL1        0.0817
     11 H           4.2690   -0.5600    0.0000 H       1  UNL1        0.0298
     12 H           4.9966    0.7249    0.0000 H       1  UNL1        0.0273
     13 H           4.1996    0.7249    0.0000 H       1  UNL1        0.0273
     14 H           3.2646    0.7249    0.0000 H       1  UNL1        0.0265
     15 H           2.4675    0.7249    0.0000 H       1  UNL1        0.0265
     16 H           3.1120   -1.2500    0.0000 H       1  UNL1        0.0232
     17 H           3.7320   -1.8700    0.0000 H       1  UNL1        0.0232
     18 H           4.3520   -1.2500    0.0000 H       1  UNL1        0.0232
     19 H           5.0656   -0.7249    0.0000 H       1  UNL1        0.0378
     20 H           5.8626   -0.7249    0.0000 H       1  UNL1        0.0378
     21 H           1.6900    0.2869    0.0000 H       1  UNL1        0.0230
     22 H           1.4631   -0.5600    0.0000 H       1  UNL1        0.0230
     23 H           2.3100   -0.7869    0.0000 H       1  UNL1        0.0230
     24 H           8.3722   -0.2869    0.0000 H       1  UNL1        0.0661
     25 H           8.5991    0.5600    0.0000 H       1  UNL1        0.0661
     26 H           7.7522    0.7869    0.0000 H       1  UNL1        0.0661
@<TRIPOS>BOND
     1     1     9    1
     2     1    10    1
     3     2     9    2
     4     3     4    1
     5     3     5    1
     6     3     6    1
     7     3    11    1
     8     4     7    1
     9     4    12    1
    10     4    13    1
    11     5     8    1
    12     5    14    1
    13     5    15    1
    14     6    16    1
    15     6    17    1
    16     6    18    1
    17     7     9    1
    18     7    19    1
    19     7    20    1
    20     8    21    1
    21     8    22    1
    22     8    23    1
    23    10    24    1
    24    10    25    1
    25    10    26    1
