@<TRIPOS>MOLECULE
IMPHY006327
 12 11 0 0 0
SMALL
GASTEIGER

@<TRIPOS>ATOM
      1 O           2.5369    0.2500    0.0000 O.3     1  UNL1       -0.3809
      2 O           5.1350   -0.2500    0.0000 O.3     1  UNL1       -0.4788
      3 O           4.2690    1.2500    0.0000 O.2     1  UNL1       -0.2481
      4 C           3.4030   -0.2500    0.0000 C.3     1  UNL1        0.1486
      5 C           3.4030   -1.2500    0.0000 C.3     1  UNL1       -0.0285
      6 C           4.2690    0.2500    0.0000 C.2     1  UNL1        0.3333
      7 H           3.4030    0.3700    0.0000 H       1  UNL1        0.0707
      8 H           2.7830   -1.2500    0.0000 H       1  UNL1        0.0260
      9 H           3.4030   -1.8700    0.0000 H       1  UNL1        0.0260
     10 H           4.0230   -1.2500    0.0000 H       1  UNL1        0.0260
     11 H           2.0000   -0.0600    0.0000 H       1  UNL1        0.2105
     12 H           5.6720    0.0600    0.0000 H       1  UNL1        0.2951
@<TRIPOS>BOND
     1     1     4    1
     2     1    11    1
     3     2     6    1
     4     2    12    1
     5     3     6    2
     6     4     5    1
     7     4     6    1
     8     4     7    1
     9     5     8    1
    10     5     9    1
    11     5    10    1
