@<TRIPOS>MOLECULE
IMPHY007006
 13 13 0 0 0
SMALL
GASTEIGER

@<TRIPOS>ATOM
      1 O           2.8090   -0.3239    0.0000 O.2     1  UNL1       -0.4655
      2 O           4.7770   -1.0233    0.0000 O.3     1  UNL1       -0.3873
      3 C           3.6180    0.2638    0.0000 C.ar    1  UNL1        0.1301
      4 C           4.5691   -0.0452    0.0000 C.3     1  UNL1        0.1019
      5 C           3.3090    1.2149    0.0000 C.ar    1  UNL1       -0.0184
      6 C           2.3090    1.2149    0.0000 C.ar    1  UNL1       -0.0236
      7 C           2.0000    0.2638    0.0000 C.ar    1  UNL1        0.0922
      8 H           5.1887   -0.0235    0.0000 H       1  UNL1        0.0638
      9 H           4.6554    0.5688    0.0000 H       1  UNL1        0.0638
     10 H           3.6734    1.7165    0.0000 H       1  UNL1        0.0653
     11 H           1.9446    1.7165    0.0000 H       1  UNL1        0.0649
     12 H           1.4103    0.0723    0.0000 H       1  UNL1        0.1029
     13 H           5.3667   -1.2149    0.0000 H       1  UNL1        0.2100
@<TRIPOS>BOND
     1     1     3   ar
     2     1     7   ar
     3     2     4    1
     4     2    13    1
     5     3     4    1
     6     3     5   ar
     7     4     8    1
     8     4     9    1
     9     5     6   ar
    10     5    10    1
    11     6     7   ar
    12     6    11    1
    13     7    12    1
