@<TRIPOS>MOLECULE
IMPHY017900
 26 27 0 0 0
SMALL
GASTEIGER

@<TRIPOS>ATOM
      1 CL          2.0000   -1.7694    0.0000 Cl      1  UNL1       -0.0829
      2 O           5.9641    3.7694    0.0000 O.2     1  UNL1       -0.2401
      3 O           6.3301    0.7306    0.0000 O.2     1  UNL1       -0.2665
      4 N           4.5981    0.7306    0.0000 N.am    1  UNL1       -0.2015
      5 N           4.5981   -0.2694    0.0000 N.2     1  UNL1       -0.1874
      6 N           6.2731    2.8184    0.0000 N.ar    1  UNL1       -0.0422
      7 N           4.9641    3.7694    0.0000 N.ar    1  UNL1       -0.0334
      8 N           3.7040    2.5094    0.0000 N.pl3   1  UNL1       -0.3386
      9 C           3.7320   -1.7694    0.0000 C.ar    1  UNL1        0.0128
     10 C           2.8660   -2.2694    0.0000 C.ar    1  UNL1        0.0496
     11 C           4.5981   -2.2694    0.0000 C.ar    1  UNL1       -0.0517
     12 C           5.4641    2.2306    0.0000 C.ar    1  UNL1        0.2112
     13 C           3.7320   -0.7694    0.0000 C.2     1  UNL1        0.0542
     14 C           2.8660   -3.2694    0.0000 C.ar    1  UNL1       -0.0428
     15 C           4.5981   -3.2694    0.0000 C.ar    1  UNL1       -0.0611
     16 C           5.4641    1.2306    0.0000 C.2     1  UNL1        0.2884
     17 C           4.6551    2.8184    0.0000 C.ar    1  UNL1        0.1925
     18 C           3.7320   -3.7694    0.0000 C.ar    1  UNL1       -0.0603
     19 H           5.1350   -1.9594    0.0000 H       1  UNL1        0.0624
     20 H           3.1951   -0.4594    0.0000 H       1  UNL1        0.0852
     21 H           2.3291   -3.5794    0.0000 H       1  UNL1        0.0632
     22 H           5.1350   -3.5794    0.0000 H       1  UNL1        0.0618
     23 H           3.7320   -4.3894    0.0000 H       1  UNL1        0.0618
     24 H           4.0611    1.0406    0.0000 H       1  UNL1        0.1776
     25 H           3.2433    2.9242    0.0000 H       1  UNL1        0.1439
     26 H           3.5751    1.9029    0.0000 H       1  UNL1        0.1439
@<TRIPOS>BOND
     1     1    10    1
     2     2     6   ar
     3     2     7   ar
     4     3    16    2
     5     4     5    1
     6     4    16   am
     7     4    24    1
     8     5    13    2
     9     6    12   ar
    10     7    17   ar
    11     8    17    1
    12     8    25    1
    13     8    26    1
    14     9    10   ar
    15     9    11   ar
    16     9    13    1
    17    10    14   ar
    18    11    15   ar
    19    11    19    1
    20    12    16    1
    21    12    17   ar
    22    13    20    1
    23    14    18   ar
    24    14    21    1
    25    15    18   ar
    26    15    22    1
    27    18    23    1
