@<TRIPOS>MOLECULE
IMPHY014257
 69 72 0 0 0
SMALL
GASTEIGER

@<TRIPOS>ATOM
      1 O           5.1350    1.7500    0.0000 O.3     1  UNL1       -0.3303
      2 O           5.1350   -1.2500    0.0000 O.3     1  UNL1       -0.4512
      3 O           6.8671   -0.2500    0.0000 O.3     1  UNL1       -0.4476
      4 O           3.4030   -0.2500    0.0000 O.3     1  UNL1       -0.3853
      5 O           6.8671    1.7500    0.0000 O.3     1  UNL1       -0.4275
      6 O           3.4030    2.7500    0.0000 O.3     1  UNL1       -0.3924
      7 O           3.4030   -1.2500    0.0000 O.2     1  UNL1       -0.2449
      8 O           7.7331    1.2500    0.0000 O.2     1  UNL1       -0.2449
      9 O           6.0010    3.2500    0.0000 O.2     1  UNL1       -0.2449
     10 O           6.0010   -4.7500    0.0000 O.3     1  UNL1       -0.5032
     11 O           2.5369   -4.7500    0.0000 O.3     1  UNL1       -0.5032
     12 O          11.1972    0.2500    0.0000 O.3     1  UNL1       -0.5032
     13 O           9.4651   -2.7500    0.0000 O.3     1  UNL1       -0.5032
     14 O           4.2690   -5.7500    0.0000 O.3     1  UNL1       -0.5009
     15 O           8.5991    5.7500    0.0000 O.3     1  UNL1       -0.5032
     16 O          10.3312    2.7500    0.0000 O.3     1  UNL1       -0.5032
     17 O          11.1972   -1.7500    0.0000 O.3     1  UNL1       -0.5009
     18 O          10.3312    4.7500    0.0000 O.3     1  UNL1       -0.5009
     19 C           5.1350   -0.2500    0.0000 C.3     1  UNL1        0.1741
     20 C           4.2690    0.2500    0.0000 C.3     1  UNL1        0.1241
     21 C           6.0010    0.2500    0.0000 C.3     1  UNL1        0.2042
     22 C           4.2690    1.2500    0.0000 C.3     1  UNL1        0.1151
     23 C           6.0010    1.2500    0.0000 C.3     1  UNL1        0.2464
     24 C           3.4030    1.7500    0.0000 C.3     1  UNL1        0.0731
     25 C           4.2690   -1.7500    0.0000 C.2     1  UNL1        0.3399
     26 C           7.7331    0.2500    0.0000 C.2     1  UNL1        0.3400
     27 C           6.8671    2.7500    0.0000 C.2     1  UNL1        0.3417
     28 C           4.2690   -2.7500    0.0000 C.ar    1  UNL1        0.0661
     29 C           8.5991   -0.2500    0.0000 C.ar    1  UNL1        0.0661
     30 C           7.7331    3.2500    0.0000 C.ar    1  UNL1        0.0662
     31 C           3.4030   -3.2500    0.0000 C.ar    1  UNL1       -0.0023
     32 C           5.1350   -3.2500    0.0000 C.ar    1  UNL1       -0.0023
     33 C           8.5991   -1.2500    0.0000 C.ar    1  UNL1       -0.0023
     34 C           9.4651    0.2500    0.0000 C.ar    1  UNL1       -0.0023
     35 C           8.5991    2.7500    0.0000 C.ar    1  UNL1       -0.0023
     36 C           7.7331    4.2500    0.0000 C.ar    1  UNL1       -0.0023
     37 C           5.1350   -4.2500    0.0000 C.ar    1  UNL1        0.1628
     38 C           3.4030   -4.2500    0.0000 C.ar    1  UNL1        0.1628
     39 C          10.3312   -0.2500    0.0000 C.ar    1  UNL1        0.1628
     40 C           9.4651   -1.7500    0.0000 C.ar    1  UNL1        0.1628
     41 C           4.2690   -4.7500    0.0000 C.ar    1  UNL1        0.2006
     42 C           8.5991    4.7500    0.0000 C.ar    1  UNL1        0.1628
     43 C           9.4651    3.2500    0.0000 C.ar    1  UNL1        0.1628
     44 C          10.3312   -1.2500    0.0000 C.ar    1  UNL1        0.2006
     45 C           9.4651    4.2500    0.0000 C.ar    1  UNL1        0.2006
     46 H           4.5981   -0.5600    0.0000 H       1  UNL1        0.0801
     47 H           4.2690   -0.3700    0.0000 H       1  UNL1        0.0658
     48 H           6.0010   -0.3700    0.0000 H       1  UNL1        0.0837
     49 H           4.2690    1.8700    0.0000 H       1  UNL1        0.0647
     50 H           6.0010    1.8700    0.0000 H       1  UNL1        0.1098
     51 H           2.7924    1.8577    0.0000 H       1  UNL1        0.0584
     52 H           3.1909    1.1674    0.0000 H       1  UNL1        0.0584
     53 H           2.8660    0.0600    0.0000 H       1  UNL1        0.2101
     54 H           2.8660    3.0600    0.0000 H       1  UNL1        0.2095
     55 H           2.8660   -2.9400    0.0000 H       1  UNL1        0.0663
     56 H           5.6720   -2.9400    0.0000 H       1  UNL1        0.0663
     57 H           8.0622   -1.5600    0.0000 H       1  UNL1        0.0663
     58 H           9.4651    0.8700    0.0000 H       1  UNL1        0.0663
     59 H           8.5991    2.1300    0.0000 H       1  UNL1        0.0663
     60 H           7.1962    4.5600    0.0000 H       1  UNL1        0.0663
     61 H           6.0010   -5.3700    0.0000 H       1  UNL1        0.2923
     62 H           2.0000   -4.4400    0.0000 H       1  UNL1        0.2923
     63 H          11.7341   -0.0600    0.0000 H       1  UNL1        0.2923
     64 H          10.0021   -3.0600    0.0000 H       1  UNL1        0.2923
     65 H           3.7320   -6.0600    0.0000 H       1  UNL1        0.2924
     66 H           8.0622    6.0600    0.0000 H       1  UNL1        0.2923
     67 H          10.8681    3.0600    0.0000 H       1  UNL1        0.2923
     68 H          11.7341   -1.4400    0.0000 H       1  UNL1        0.2924
     69 H          10.3312    5.3700    0.0000 H       1  UNL1        0.2924
@<TRIPOS>BOND
     1     1    22    1
     2     1    23    1
     3    19     2    1
     4     2    25    1
     5    21     3    1
     6     3    26    1
     7    20     4    1
     8     4    53    1
     9     5    23    1
    10     5    27    1
    11     6    24    1
    12     6    54    1
    13     7    25    2
    14     8    26    2
    15     9    27    2
    16    10    37    1
    17    10    61    1
    18    11    38    1
    19    11    62    1
    20    12    39    1
    21    12    63    1
    22    13    40    1
    23    13    64    1
    24    14    41    1
    25    14    65    1
    26    15    42    1
    27    15    66    1
    28    16    43    1
    29    16    67    1
    30    17    44    1
    31    17    68    1
    32    18    45    1
    33    18    69    1
    34    19    20    1
    35    19    21    1
    36    19    46    1
    37    20    22    1
    38    20    47    1
    39    21    23    1
    40    21    48    1
    41    22    24    1
    42    22    49    1
    43    23    50    1
    44    24    51    1
    45    24    52    1
    46    25    28    1
    47    26    29    1
    48    27    30    1
    49    28    31   ar
    50    28    32   ar
    51    29    33   ar
    52    29    34   ar
    53    30    35   ar
    54    30    36   ar
    55    31    38   ar
    56    31    55    1
    57    32    37   ar
    58    32    56    1
    59    33    40   ar
    60    33    57    1
    61    34    39   ar
    62    34    58    1
    63    35    43   ar
    64    35    59    1
    65    36    42   ar
    66    36    60    1
    67    37    41   ar
    68    38    41   ar
    69    39    44   ar
    70    40    44   ar
    71    42    45   ar
    72    43    45   ar
