@<TRIPOS>MOLECULE
IMPHY013754
 21 20 0 0 0
SMALL
GASTEIGER

@<TRIPOS>ATOM
      1 O           2.5369    0.2500    0.0000 O.3     1  UNL1       -0.3947
      2 C           4.2690    0.2500    0.0000 C.3     1  UNL1       -0.0207
      3 C           5.1350    0.7500    0.0000 C.3     1  UNL1       -0.0486
      4 C           6.0010    0.2500    0.0000 C.3     1  UNL1       -0.0556
      5 C           3.4030    0.7500    0.0000 C.3     1  UNL1        0.0468
      6 C           4.2690   -0.7500    0.0000 C.3     1  UNL1       -0.0603
      7 C           6.8671    0.7500    0.0000 C.3     1  UNL1       -0.0653
      8 H           4.8059   -0.0600    0.0000 H       1  UNL1        0.0320
      9 H           5.5335    1.2250    0.0000 H       1  UNL1        0.0268
     10 H           4.7365    1.2250    0.0000 H       1  UNL1        0.0268
     11 H           5.6025   -0.2249    0.0000 H       1  UNL1        0.0263
     12 H           6.3996   -0.2249    0.0000 H       1  UNL1        0.0263
     13 H           3.8015    1.2250    0.0000 H       1  UNL1        0.0560
     14 H           3.0044    1.2250    0.0000 H       1  UNL1        0.0560
     15 H           3.6490   -0.7500    0.0000 H       1  UNL1        0.0233
     16 H           4.2690   -1.3700    0.0000 H       1  UNL1        0.0233
     17 H           4.8890   -0.7500    0.0000 H       1  UNL1        0.0233
     18 H           7.1771    0.2131    0.0000 H       1  UNL1        0.0230
     19 H           7.4040    1.0600    0.0000 H       1  UNL1        0.0230
     20 H           6.5571    1.2869    0.0000 H       1  UNL1        0.0230
     21 H           2.0000    0.5600    0.0000 H       1  UNL1        0.2094
@<TRIPOS>BOND
     1     1     5    1
     2     1    21    1
     3     2     3    1
     4     2     5    1
     5     2     6    1
     6     2     8    1
     7     3     4    1
     8     3     9    1
     9     3    10    1
    10     4     7    1
    11     4    11    1
    12     4    12    1
    13     5    13    1
    14     5    14    1
    15     6    15    1
    16     6    16    1
    17     6    17    1
    18     7    18    1
    19     7    19    1
    20     7    20    1
