@<TRIPOS>MOLECULE
IMPHY006627
 61 64 0 0 0
SMALL
GASTEIGER

@<TRIPOS>ATOM
      1 O           3.6520    2.0814    0.0000 O.3     1  UNL1       -0.3884
      2 O           9.0482    3.6056    0.0000 O.3     1  UNL1       -0.3912
      3 O           4.6520    0.0814    0.0000 O.3     1  UNL1       -0.4915
      4 O           2.8760   -2.9254    0.0000 O.2     1  UNL1       -0.4220
      5 O           2.0000   -4.4637    0.0000 O.2     1  UNL1       -0.2452
      6 C           6.3840    2.0814    0.0000 C.3     1  UNL1       -0.0201
      7 C           6.3840    3.0814    0.0000 C.3     1  UNL1       -0.0276
      8 C           7.2780    3.6161    0.0000 C.3     1  UNL1       -0.0056
      9 C           5.5180    1.5814    0.0000 C.3     1  UNL1        0.0274
     10 C           7.2780    1.5468    0.0000 C.3     1  UNL1       -0.0445
     11 C           4.6520    2.0814    0.0000 C.3     1  UNL1        0.0697
     12 C           5.5180    3.5814    0.0000 C.3     1  UNL1       -0.0465
     13 C           8.1841    3.1022    0.0000 C.3     1  UNL1        0.0606
     14 C           4.6520    3.0814    0.0000 C.3     1  UNL1       -0.0236
     15 C           8.1841    2.0606    0.0000 C.3     1  UNL1       -0.0258
     16 C           6.3840    1.0814    0.0000 C.3     1  UNL1       -0.0588
     17 C           5.5180    0.5814    0.0000 C.3     1  UNL1        0.0955
     18 C           7.7680    4.4878    0.0000 C.3     1  UNL1       -0.0572
     19 C           6.7680    4.4763    0.0000 C.3     1  UNL1       -0.0572
     20 C           4.1520    1.2154    0.0000 C.3     1  UNL1       -0.0357
     21 C           4.6520   -0.9186    0.0000 C.ar    1  UNL1        0.1240
     22 C           3.7860   -1.4186    0.0000 C.ar    1  UNL1        0.0231
     23 C           5.5180   -1.4186    0.0000 C.ar    1  UNL1       -0.0192
     24 C           3.7860   -2.4186    0.0000 C.ar    1  UNL1        0.1425
     25 C           5.5180   -2.4186    0.0000 C.ar    1  UNL1       -0.0476
     26 C           4.6520   -2.9186    0.0000 C.ar    1  UNL1        0.0178
     27 C           4.6681   -3.9601    0.0000 C.ar    1  UNL1       -0.0443
     28 C           2.8680   -3.9670    0.0000 C.ar    1  UNL1        0.3372
     29 C           3.7700   -4.4878    0.0000 C.ar    1  UNL1        0.0236
     30 H           6.3775    3.9314    0.0000 H       1  UNL1        0.0312
     31 H           4.9811    1.2714    0.0000 H       1  UNL1        0.0367
     32 H           6.8734    1.0770    0.0000 H       1  UNL1        0.0272
     33 H           7.6716    1.0678    0.0000 H       1  UNL1        0.0272
     34 H           5.9166    4.0564    0.0000 H       1  UNL1        0.0269
     35 H           5.1195    4.0564    0.0000 H       1  UNL1        0.0269
     36 H           8.1805    3.7222    0.0000 H       1  UNL1        0.0599
     37 H           4.4399    3.6640    0.0000 H       1  UNL1        0.0293
     38 H           4.0414    2.9738    0.0000 H       1  UNL1        0.0293
     39 H           8.3931    1.4769    0.0000 H       1  UNL1        0.0290
     40 H           8.7949    2.1667    0.0000 H       1  UNL1        0.0290
     41 H           5.7640    1.0814    0.0000 H       1  UNL1        0.0235
     42 H           6.3840    0.4614    0.0000 H       1  UNL1        0.0235
     43 H           7.0040    1.0814    0.0000 H       1  UNL1        0.0235
     44 H           5.7301   -0.0012    0.0000 H       1  UNL1        0.0700
     45 H           6.1286    0.6891    0.0000 H       1  UNL1        0.0700
     46 H           7.3013    4.7925    0.0000 H       1  UNL1        0.0236
     47 H           6.4518    5.0096    0.0000 H       1  UNL1        0.0236
     48 H           6.2347    4.1601    0.0000 H       1  UNL1        0.0236
     49 H           8.3084    4.1841    0.0000 H       1  UNL1        0.0236
     50 H           8.0717    5.0283    0.0000 H       1  UNL1        0.0236
     51 H           7.2275    4.7916    0.0000 H       1  UNL1        0.0236
     52 H           3.6151    1.5254    0.0000 H       1  UNL1        0.0257
     53 H           3.8420    0.6785    0.0000 H       1  UNL1        0.0257
     54 H           4.6889    0.9054    0.0000 H       1  UNL1        0.0257
     55 H           3.3420    2.6184    0.0000 H       1  UNL1        0.2102
     56 H           9.5863    3.2976    0.0000 H       1  UNL1        0.2098
     57 H           3.2490   -1.1086    0.0000 H       1  UNL1        0.0691
     58 H           6.0550   -1.1086    0.0000 H       1  UNL1        0.0654
     59 H           6.0550   -2.7286    0.0000 H       1  UNL1        0.0626
     60 H           5.2086   -4.2638    0.0000 H       1  UNL1        0.0627
     61 H           3.7724   -5.1078    0.0000 H       1  UNL1        0.0689
@<TRIPOS>BOND
     1    11     1    1
     2     1    55    1
     3    13     2    1
     4     2    56    1
     5     3    17    1
     6     3    21    1
     7     4    24   ar
     8     4    28   ar
     9     5    28    2
    10     6     7    1
    11     6     9    1
    12     6    10    1
    13     6    16    1
    14     7     8    1
    15     7    12    1
    16     7    30    1
    17     8    13    1
    18     8    18    1
    19     8    19    1
    20     9    11    1
    21     9    17    1
    22     9    31    1
    23    10    15    1
    24    10    32    1
    25    10    33    1
    26    11    14    1
    27    11    20    1
    28    12    14    1
    29    12    34    1
    30    12    35    1
    31    13    15    1
    32    13    36    1
    33    14    37    1
    34    14    38    1
    35    15    39    1
    36    15    40    1
    37    16    41    1
    38    16    42    1
    39    16    43    1
    40    17    44    1
    41    17    45    1
    42    18    49    1
    43    18    50    1
    44    18    51    1
    45    19    46    1
    46    19    47    1
    47    19    48    1
    48    20    52    1
    49    20    53    1
    50    20    54    1
    51    21    22   ar
    52    21    23   ar
    53    22    24   ar
    54    22    57    1
    55    23    25   ar
    56    23    58    1
    57    24    26   ar
    58    25    26   ar
    59    25    59    1
    60    26    27   ar
    61    27    29   ar
    62    27    60    1
    63    28    29   ar
    64    29    61    1
