@<TRIPOS>MOLECULE
IMPHY002373
 17 18 0 0 0
SMALL
GASTEIGER

@<TRIPOS>ATOM
      1 C           2.5895    1.5016    0.0000 C.3     1  UNL1        0.0111
      2 C           2.5895    2.5010    0.0000 C.3     1  UNL1        0.0191
      3 C           1.7280    0.9994    0.0000 C.3     1  UNL1        0.0622
      4 C           3.4578    0.9977    0.0000 C.3     1  UNL1        0.0032
      5 C           3.4561    3.0032    0.0000 C.3     1  UNL1        0.0041
      6 C           1.7246    2.9964    0.0000 C.2     1  UNL1       -0.0238
      7 C           2.5861    3.5020    0.0000 C.3     1  UNL1        0.0044
      8 C           0.8649    1.4965    0.0000 C.2     1  UNL1        0.1724
      9 C           1.7297    0.0000    0.0000 C.3     1  UNL1        0.0081
     10 C           4.3260    1.4965    0.0000 C.3     1  UNL1        0.0281
     11 C           4.3260    2.5010    0.0000 C.3     1  UNL1        0.0028
     12 C           0.8649    2.4976    0.0000 C.2     1  UNL1        0.0328
     13 O           0.0000    0.9977    0.0000 O.2     1  UNL1       -0.2914
     14 C           5.1926    0.9960    0.0000 C.3     1  UNL1        0.1267
     15 O           5.9008    1.7025    0.0000 O.3     1  UNL1       -0.2257
     16 C           4.6189    0.1771    0.0000 C.3     1  UNL1        0.0329
     17 C           5.9587    0.3524    0.0000 C.3     1  UNL1        0.0329
@<TRIPOS>BOND
     1     1     2    1
     2     1     3    1
     3     1     4    1
     4     2     5    1
     5     2     6    1
     6     2     7    1
     7     3     8    1
     8     3     9    1
     9     4    10    1
    10     5    11    1
    11     6    12    2
    12     8    12    1
    13     8    13    2
    14    10    11    1
    15    10    14    1
    16    14    15    1
    17    14    16    1
    18    14    17    1
