@<TRIPOS>MOLECULE
IMPHY017537
 37 39 0 0 0
SMALL
GASTEIGER

@<TRIPOS>ATOM
      1 O           5.4641    0.7327    0.0000 O.3     1  UNL1       -0.4851
      2 O           2.8660   -0.7673    0.0000 O.3     1  UNL1       -0.4947
      3 O           6.3301   -3.7673    0.0000 O.2     1  UNL1       -0.2957
      4 N           7.2241    1.6980    0.0000 N.ar    1  UNL1       -0.2513
      5 C           4.5981   -0.7673    0.0000 C.ar    1  UNL1        0.0319
      6 C           4.5981    0.2327    0.0000 C.3     1  UNL1        0.1181
      7 C           5.4641    1.7327    0.0000 C.ar    1  UNL1        0.1468
      8 C           6.3301    2.2327    0.0000 C.ar    1  UNL1        0.1125
      9 C           6.3301    3.2327    0.0000 C.ar    1  UNL1        0.0040
     10 C           3.7320   -1.2673    0.0000 C.ar    1  UNL1        0.1265
     11 C           5.4641   -1.2673    0.0000 C.ar    1  UNL1       -0.0416
     12 C           5.4641   -2.2673    0.0000 C.ar    1  UNL1        0.0148
     13 C           4.5981    2.2327    0.0000 C.ar    1  UNL1       -0.0178
     14 C           5.4641    3.7327    0.0000 C.ar    1  UNL1       -0.0523
     15 C           3.7320   -2.2673    0.0000 C.ar    1  UNL1       -0.0189
     16 C           4.5981   -2.7673    0.0000 C.ar    1  UNL1       -0.0481
     17 C           4.5981    3.2327    0.0000 C.ar    1  UNL1       -0.0576
     18 C           7.2241    3.7673    0.0000 C.ar    1  UNL1       -0.0510
     19 C           8.1301    3.2535    0.0000 C.ar    1  UNL1       -0.0430
     20 C           8.1301    2.2118    0.0000 C.ar    1  UNL1        0.0284
     21 C           6.3301   -2.7673    0.0000 C.2     1  UNL1        0.1502
     22 C           2.0000   -1.2673    0.0000 C.3     1  UNL1        0.0788
     23 H           4.3860    0.8153    0.0000 H       1  UNL1        0.0749
     24 H           3.9875    0.1250    0.0000 H       1  UNL1        0.0749
     25 H           6.0010   -0.9573    0.0000 H       1  UNL1        0.0629
     26 H           4.0611    1.9227    0.0000 H       1  UNL1        0.0655
     27 H           5.4641    4.3527    0.0000 H       1  UNL1        0.0624
     28 H           3.1951   -2.5773    0.0000 H       1  UNL1        0.0654
     29 H           4.5981   -3.3873    0.0000 H       1  UNL1        0.0626
     30 H           4.0611    3.5427    0.0000 H       1  UNL1        0.0619
     31 H           7.2169    4.3873    0.0000 H       1  UNL1        0.0625
     32 H           8.6659    3.5656    0.0000 H       1  UNL1        0.0633
     33 H           8.6659    1.8998    0.0000 H       1  UNL1        0.0830
     34 H           6.8671   -2.4573    0.0000 H       1  UNL1        0.1081
     35 H           1.6900   -0.7304    0.0000 H       1  UNL1        0.0660
     36 H           1.4631   -1.5773    0.0000 H       1  UNL1        0.0660
     37 H           2.3100   -1.8043    0.0000 H       1  UNL1        0.0660
@<TRIPOS>BOND
     1     1     6    1
     2     1     7    1
     3     2    10    1
     4     2    22    1
     5     3    21    2
     6     4     8   ar
     7     4    20   ar
     8     5     6    1
     9     5    10   ar
    10     5    11   ar
    11     6    23    1
    12     6    24    1
    13     7     8   ar
    14     7    13   ar
    15     8     9   ar
    16     9    14   ar
    17     9    18   ar
    18    10    15   ar
    19    11    12   ar
    20    11    25    1
    21    12    16   ar
    22    12    21    1
    23    13    17   ar
    24    13    26    1
    25    14    17   ar
    26    14    27    1
    27    15    16   ar
    28    15    28    1
    29    16    29    1
    30    17    30    1
    31    18    19   ar
    32    18    31    1
    33    19    20   ar
    34    19    32    1
    35    20    33    1
    36    21    34    1
    37    22    35    1
    38    22    36    1
    39    22    37    1
