@<TRIPOS>MOLECULE
IMPHY010134
 60 62 0 0 0
SMALL
GASTEIGER

@<TRIPOS>ATOM
      1 O           8.1301   -2.0152    0.0000 O.2     1  UNL1       -0.4542
      2 O           4.6000   -2.0393    0.0000 O.3     1  UNL1       -0.4946
      3 O           6.3817    1.0194    0.0000 O.3     1  UNL1       -0.5055
      4 O           3.7282   -1.4877    0.0000 O.3     1  UNL1       -0.3872
      5 O          11.6602    0.0090    0.0000 O.3     1  UNL1       -0.4912
      6 O           8.1301    0.9848    0.0000 O.2     1  UNL1       -0.2863
      7 O          11.6602   -2.0393    0.0000 O.3     1  UNL1       -0.5032
      8 C           7.2641   -0.5152    0.0000 C.ar    1  UNL1        0.1063
      9 C           8.9961   -0.5152    0.0000 C.ar    1  UNL1        0.0719
     10 C           5.4641   -0.4944    0.0000 C.ar    1  UNL1        0.0393
     11 C           4.6000    0.0090    0.0000 C.3     1  UNL1        0.0092
     12 C           7.2641   -1.5152    0.0000 C.ar    1  UNL1        0.1463
     13 C           9.8901    0.0195    0.0000 C.ar    1  UNL1        0.0160
     14 C           6.3701    0.0195    0.0000 C.ar    1  UNL1        0.1379
     15 C           8.1301   -0.0152    0.0000 C.ar    1  UNL1        0.2041
     16 C           8.9961   -1.5152    0.0000 C.ar    1  UNL1        0.1432
     17 C           5.4641   -1.5360    0.0000 C.ar    1  UNL1        0.1303
     18 C           3.7320   -0.4877    0.0000 C.3     1  UNL1        0.0799
     19 C           6.3701   -2.0498    0.0000 C.ar    1  UNL1        0.0236
     20 C           9.8785    1.0194    0.0000 C.3     1  UNL1       -0.0049
     21 C          10.7961   -0.4944    0.0000 C.ar    1  UNL1        0.1656
     22 C           9.8901   -2.0498    0.0000 C.ar    1  UNL1        0.0265
     23 C          10.7961   -1.5360    0.0000 C.ar    1  UNL1        0.1623
     24 C           2.8680    0.0157    0.0000 C.2     1  UNL1       -0.0513
     25 C          10.7387    1.5294    0.0000 C.2     1  UNL1       -0.0808
     26 C           2.0000   -0.4810    0.0000 C.3     1  UNL1       -0.0416
     27 C          10.7271    2.5293    0.0000 C.2     1  UNL1       -0.0793
     28 C           2.8718    1.0156    0.0000 C.2     1  UNL1       -0.0973
     29 C           4.6038   -3.0393    0.0000 C.3     1  UNL1        0.0788
     30 C          11.5873    3.0393    0.0000 C.3     1  UNL1       -0.0440
     31 C           9.8554    3.0193    0.0000 C.3     1  UNL1       -0.0440
     32 C          12.5282   -0.4877    0.0000 C.3     1  UNL1        0.0790
     33 H           5.0003    0.4824    0.0000 H       1  UNL1        0.0344
     34 H           4.2033    0.4855    0.0000 H       1  UNL1        0.0344
     35 H           4.2678   -0.7997    0.0000 H       1  UNL1        0.0643
     36 H           6.3773   -2.6698    0.0000 H       1  UNL1        0.0691
     37 H           9.6597    1.5995    0.0000 H       1  UNL1        0.0357
     38 H           9.2692    0.9047    0.0000 H       1  UNL1        0.0357
     39 H           9.8829   -2.6698    0.0000 H       1  UNL1        0.0692
     40 H          11.2792    1.2256    0.0000 H       1  UNL1        0.0575
     41 H           5.8484    1.3356    0.0000 H       1  UNL1        0.2922
     42 H           1.6921    0.0571    0.0000 H       1  UNL1        0.0275
     43 H           1.4619   -0.7889    0.0000 H       1  UNL1        0.0275
     44 H           2.3079   -1.0191    0.0000 H       1  UNL1        0.0275
     45 H           3.1901   -1.7956    0.0000 H       1  UNL1        0.2102
     46 H           3.4099    1.3236    0.0000 H       1  UNL1        0.0535
     47 H           2.3361    1.3277    0.0000 H       1  UNL1        0.0535
     48 H          11.6578   -2.6593    0.0000 H       1  UNL1        0.2923
     49 H           3.9838   -3.0417    0.0000 H       1  UNL1        0.0660
     50 H           4.6062   -3.6593    0.0000 H       1  UNL1        0.0660
     51 H           5.2238   -3.0369    0.0000 H       1  UNL1        0.0660
     52 H          10.1592    3.5598    0.0000 H       1  UNL1        0.0274
     53 H           9.3149    3.3231    0.0000 H       1  UNL1        0.0274
     54 H          11.9035    2.5060    0.0000 H       1  UNL1        0.0274
     55 H          12.1206    3.3555    0.0000 H       1  UNL1        0.0274
     56 H          11.2711    3.5726    0.0000 H       1  UNL1        0.0274
     57 H           9.5516    2.4788    0.0000 H       1  UNL1        0.0274
     58 H          12.2203   -1.0258    0.0000 H       1  UNL1        0.0660
     59 H          13.0663   -0.7956    0.0000 H       1  UNL1        0.0660
     60 H          12.8361    0.0504    0.0000 H       1  UNL1        0.0660
@<TRIPOS>BOND
     1     1    12   ar
     2     1    16   ar
     3     2    17    1
     4     2    29    1
     5     3    14    1
     6     3    41    1
     7     4    18    1
     8     4    45    1
     9     5    21    1
    10     5    32    1
    11     6    15    2
    12     7    23    1
    13     7    48    1
    14     8    12   ar
    15     8    14   ar
    16     8    15   ar
    17     9    13   ar
    18     9    15   ar
    19     9    16   ar
    20    10    11    1
    21    10    14   ar
    22    10    17   ar
    23    11    18    1
    24    11    33    1
    25    11    34    1
    26    12    19   ar
    27    13    20    1
    28    13    21   ar
    29    16    22   ar
    30    17    19   ar
    31    18    24    1
    32    18    35    1
    33    19    36    1
    34    20    25    1
    35    20    37    1
    36    20    38    1
    37    21    23   ar
    38    22    23   ar
    39    22    39    1
    40    24    26    1
    41    24    28    2
    42    25    27    2
    43    25    40    1
    44    26    42    1
    45    26    43    1
    46    26    44    1
    47    27    30    1
    48    27    31    1
    49    28    46    1
    50    28    47    1
    51    29    49    1
    52    29    50    1
    53    29    51    1
    54    30    54    1
    55    30    55    1
    56    30    56    1
    57    31    52    1
    58    31    53    1
    59    31    57    1
    60    32    58    1
    61    32    59    1
    62    32    60    1
