@<TRIPOS>MOLECULE
IMPHY008505
 34 35 0 0 0
SMALL
GASTEIGER

@<TRIPOS>ATOM
      1 S           7.2566    1.7955    0.0000 S.3     1  UNL1       -0.1029
      2 S           5.6103    2.3336    0.0000 S.3     1  UNL1       -0.1029
      3 O           4.9889   -3.0779    0.0000 O.3     1  UNL1       -0.4147
      4 N           4.6783   -2.1274    0.0000 N.ar    1  UNL1       -0.1895
      5 N           5.9674    0.6388    0.0000 N.2     1  UNL1       -0.2658
      6 C           3.7320   -0.8227    0.0000 C.ar    1  UNL1        0.0081
      7 C           4.6783   -0.5179    0.0000 C.ar    1  UNL1        0.0025
      8 C           3.7320   -1.8227    0.0000 C.ar    1  UNL1        0.0876
      9 C           5.2619   -1.3227    0.0000 C.ar    1  UNL1        0.0502
     10 C           4.9889    0.4326    0.0000 C.3     1  UNL1        0.0686
     11 C           2.8660   -0.3227    0.0000 C.ar    1  UNL1       -0.0522
     12 C           2.8660   -2.3227    0.0000 C.ar    1  UNL1       -0.0343
     13 C           2.0000   -0.8227    0.0000 C.ar    1  UNL1       -0.0611
     14 C           2.0000   -1.8227    0.0000 C.ar    1  UNL1       -0.0597
     15 C           5.9674   -3.2841    0.0000 C.3     1  UNL1        0.1052
     16 C           6.2781    1.5893    0.0000 C.2     1  UNL1        0.1250
     17 C           5.9209    3.2841    0.0000 C.3     1  UNL1       -0.0116
     18 C           7.5673    2.7461    0.0000 C.3     1  UNL1       -0.0116
     19 H           5.8819   -1.3227    0.0000 H       1  UNL1        0.0848
     20 H           4.9684    1.0522    0.0000 H       1  UNL1        0.0559
     21 H           4.3751    0.5199    0.0000 H       1  UNL1        0.0559
     22 H           2.8660    0.2973    0.0000 H       1  UNL1        0.0624
     23 H           2.8660   -2.9427    0.0000 H       1  UNL1        0.0639
     24 H           1.4631   -0.5127    0.0000 H       1  UNL1        0.0618
     25 H           1.4631   -2.1327    0.0000 H       1  UNL1        0.0618
     26 H           5.8396   -3.8908    0.0000 H       1  UNL1        0.0686
     27 H           6.5741   -3.4120    0.0000 H       1  UNL1        0.0686
     28 H           6.0953   -2.6775    0.0000 H       1  UNL1        0.0686
     29 H           6.5102    3.0915    0.0000 H       1  UNL1        0.0344
     30 H           6.1135    3.8735    0.0000 H       1  UNL1        0.0344
     31 H           5.3316    3.4768    0.0000 H       1  UNL1        0.0344
     32 H           8.1566    2.5535    0.0000 H       1  UNL1        0.0344
     33 H           7.7599    3.3354    0.0000 H       1  UNL1        0.0344
     34 H           6.9780    2.9387    0.0000 H       1  UNL1        0.0344
@<TRIPOS>BOND
     1     1    16    1
     2     1    18    1
     3     2    16    1
     4     2    17    1
     5     3     4    1
     6     3    15    1
     7     4     8   ar
     8     4     9   ar
     9     5    10    1
    10     5    16    2
    11     6     7   ar
    12     6     8   ar
    13     6    11   ar
    14     7     9   ar
    15     7    10    1
    16     8    12   ar
    17     9    19    1
    18    10    20    1
    19    10    21    1
    20    11    13   ar
    21    11    22    1
    22    12    14   ar
    23    12    23    1
    24    13    14   ar
    25    13    24    1
    26    14    25    1
    27    15    26    1
    28    15    27    1
    29    15    28    1
    30    17    29    1
    31    17    30    1
    32    17    31    1
    33    18    32    1
    34    18    33    1
    35    18    34    1
