@<TRIPOS>MOLECULE
IMPHY014264
 59 63 0 0 0
SMALL
GASTEIGER

@<TRIPOS>ATOM
      1 S           9.6026   -0.5315    0.0000 S.2     1  UNL1       -0.0849
      2 S          11.9734   -1.8469    0.0000 S.2     1  UNL1       -0.0794
      3 O           4.6397   -1.2356    0.0000 O.3     1  UNL1       -0.4583
      4 O           6.8138    0.1526    0.0000 O.3     1  UNL1       -0.3767
      5 O           6.0518   -2.3132    0.0000 O.2     1  UNL1       -0.2476
      6 O           7.7930    0.5112    0.0000 O.2     1  UNL1       -0.2914
      7 C           3.6027    0.1831    0.0000 C.3     1  UNL1        0.0238
      8 C           4.5037   -0.2508    0.0000 C.3     1  UNL1        0.1161
      9 C           5.4047    0.1831    0.0000 C.3     1  UNL1        0.0367
     10 C           3.3802    1.1580    0.0000 C.3     1  UNL1       -0.0100
     11 C           6.0898   -0.5372    0.0000 C.3     1  UNL1        0.1752
     12 C           5.6272    1.1580    0.0000 C.3     1  UNL1       -0.0400
     13 C           2.3899    1.2445    0.0000 C.3     1  UNL1       -0.0422
     14 C           2.7480   -0.3246    0.0000 C.2     1  UNL1       -0.0694
     15 C           4.0037    1.9398    0.0000 C.2     1  UNL1       -0.0728
     16 C           2.0000    0.3301    0.0000 C.3     1  UNL1       -0.0310
     17 C           5.0037    1.9398    0.0000 C.3     1  UNL1       -0.0312
     18 C           5.6180   -1.4122    0.0000 C.2     1  UNL1        0.3403
     19 C           6.9696   -1.0126    0.0000 C.3     1  UNL1        0.0507
     20 C           2.6567   -1.3204    0.0000 C.2     1  UNL1       -0.0990
     21 C           3.5698    2.8408    0.0000 C.2     1  UNL1       -0.0992
     22 C           7.8211   -0.4884    0.0000 C.2     1  UNL1        0.1730
     23 C           8.7009   -0.9638    0.0000 C.ar    1  UNL1        0.0552
     24 C           8.8334   -1.9550    0.0000 C.ar    1  UNL1       -0.0435
     25 C          10.2924   -1.2555    0.0000 C.ar    1  UNL1        0.0266
     26 C           9.8170   -2.1352    0.0000 C.ar    1  UNL1       -0.0458
     27 C          11.2836   -1.1229    0.0000 C.ar    1  UNL1        0.0271
     28 C          11.7590   -0.2432    0.0000 C.ar    1  UNL1       -0.0452
     29 C          12.7426   -0.4234    0.0000 C.ar    1  UNL1       -0.0386
     30 C          12.8752   -1.4146    0.0000 C.ar    1  UNL1        0.0625
     31 C          13.7549   -1.8900    0.0000 C.1     1  UNL1       -0.0594
     32 C          14.6347   -2.3654    0.0000 C.1     1  UNL1       -0.0998
     33 C          15.5145   -2.8408    0.0000 C.3     1  UNL1       -0.0022
     34 H           3.6398   -0.6661    0.0000 H       1  UNL1        0.0387
     35 H           3.8167   -0.7513    0.0000 H       1  UNL1        0.0744
     36 H           6.0025    0.3472    0.0000 H       1  UNL1        0.0370
     37 H           3.0451    1.9392    0.0000 H       1  UNL1        0.0353
     38 H           6.1858    0.8890    0.0000 H       1  UNL1        0.0273
     39 H           6.0138    1.6427    0.0000 H       1  UNL1        0.0273
     40 H           2.5085    1.8531    0.0000 H       1  UNL1        0.0274
     41 H           1.7972    1.4264    0.0000 H       1  UNL1        0.0274
     42 H           1.4584    0.6319    0.0000 H       1  UNL1        0.0310
     43 H           1.6430   -0.1768    0.0000 H       1  UNL1        0.0310
     44 H           5.5623    2.2088    0.0000 H       1  UNL1        0.0310
     45 H           4.8657    2.5443    0.0000 H       1  UNL1        0.0310
     46 H           6.5846   -1.4986    0.0000 H       1  UNL1        0.0379
     47 H           7.3813   -1.4762    0.0000 H       1  UNL1        0.0379
     48 H           6.6678    0.7552    0.0000 H       1  UNL1        0.2109
     49 H           2.0937   -1.5800    0.0000 H       1  UNL1        0.0535
     50 H           3.1630   -1.6782    0.0000 H       1  UNL1        0.0535
     51 H           3.9191    3.3531    0.0000 H       1  UNL1        0.0534
     52 H           2.9516    2.8871    0.0000 H       1  UNL1        0.0534
     53 H           8.3846   -2.3827    0.0000 H       1  UNL1        0.0630
     54 H          10.0851   -2.6943    0.0000 H       1  UNL1        0.0629
     55 H          11.4910    0.3159    0.0000 H       1  UNL1        0.0629
     56 H          13.1915    0.0042    0.0000 H       1  UNL1        0.0635
     57 H          15.2197   -3.3862    0.0000 H       1  UNL1        0.0362
     58 H          16.0599   -3.1355    0.0000 H       1  UNL1        0.0362
     59 H          15.8092   -2.2953    0.0000 H       1  UNL1        0.0362
@<TRIPOS>BOND
     1     1    23   ar
     2     1    25   ar
     3     2    27   ar
     4     2    30   ar
     5     3     8    1
     6     3    18    1
     7    11     4    1
     8     4    48    1
     9     5    18    2
    10     6    22    2
    11     7     8    1
    12     7    10    1
    13     7    14    1
    14     7    34    1
    15     8     9    1
    16     8    35    1
    17     9    11    1
    18     9    12    1
    19     9    36    1
    20    10    13    1
    21    10    15    1
    22    10    37    1
    23    11    18    1
    24    11    19    1
    25    12    17    1
    26    12    38    1
    27    12    39    1
    28    13    16    1
    29    13    40    1
    30    13    41    1
    31    14    16    1
    32    14    20    2
    33    15    17    1
    34    15    21    2
    35    16    42    1
    36    16    43    1
    37    17    44    1
    38    17    45    1
    39    19    22    1
    40    19    46    1
    41    19    47    1
    42    20    49    1
    43    20    50    1
    44    21    51    1
    45    21    52    1
    46    22    23    1
    47    23    24   ar
    48    24    26   ar
    49    24    53    1
    50    25    26   ar
    51    25    27    1
    52    26    54    1
    53    27    28   ar
    54    28    29   ar
    55    28    55    1
    56    29    30   ar
    57    29    56    1
    58    30    31    1
    59    31    32    3
    60    32    33    1
    61    33    57    1
    62    33    58    1
    63    33    59    1
