@<TRIPOS>MOLECULE
IMPHY016362
 24 23 0 0 0
SMALL
GASTEIGER

@<TRIPOS>ATOM
      1 O           2.5369    1.0000    0.0000 O.3     1  UNL1       -0.3918
      2 C           4.2690    1.0000    0.0000 C.3     1  UNL1       -0.0269
      3 C           3.4030    0.5000    0.0000 C.3     1  UNL1        0.0550
      4 C           5.1350    0.5000    0.0000 C.3     1  UNL1       -0.0510
      5 C           3.4030   -0.5000    0.0000 C.3     1  UNL1       -0.0297
      6 C           6.0010    1.0000    0.0000 C.3     1  UNL1       -0.0558
      7 C           2.5369   -1.0000    0.0000 C.3     1  UNL1       -0.0629
      8 C           6.8671    0.5000    0.0000 C.3     1  UNL1       -0.0653
      9 H           4.6675    1.4750    0.0000 H       1  UNL1        0.0290
     10 H           3.8705    1.4750    0.0000 H       1  UNL1        0.0290
     11 H           3.4030    1.1200    0.0000 H       1  UNL1        0.0593
     12 H           4.7365    0.0251    0.0000 H       1  UNL1        0.0266
     13 H           5.5335    0.0251    0.0000 H       1  UNL1        0.0266
     14 H           3.6150   -1.0826    0.0000 H       1  UNL1        0.0287
     15 H           4.0135   -0.3923    0.0000 H       1  UNL1        0.0287
     16 H           6.3996    1.4750    0.0000 H       1  UNL1        0.0263
     17 H           5.6025    1.4750    0.0000 H       1  UNL1        0.0263
     18 H           2.2269   -0.4631    0.0000 H       1  UNL1        0.0231
     19 H           2.0000   -1.3100    0.0000 H       1  UNL1        0.0231
     20 H           2.8469   -1.5369    0.0000 H       1  UNL1        0.0231
     21 H           6.5571   -0.0369    0.0000 H       1  UNL1        0.0230
     22 H           7.4040    0.1900    0.0000 H       1  UNL1        0.0230
     23 H           7.1771    1.0369    0.0000 H       1  UNL1        0.0230
     24 H           2.0000    0.6900    0.0000 H       1  UNL1        0.2098
@<TRIPOS>BOND
     1     1     3    1
     2     1    24    1
     3     2     3    1
     4     2     4    1
     5     2     9    1
     6     2    10    1
     7     3     5    1
     8     3    11    1
     9     4     6    1
    10     4    12    1
    11     4    13    1
    12     5     7    1
    13     5    14    1
    14     5    15    1
    15     6     8    1
    16     6    16    1
    17     6    17    1
    18     7    18    1
    19     7    19    1
    20     7    20    1
    21     8    21    1
    22     8    22    1
    23     8    23    1
