@<TRIPOS>MOLECULE
IMPHY002974
 65 67 0 0 0
SMALL
GASTEIGER

@<TRIPOS>ATOM
      1 O           9.8600   -2.0598    0.0000 O.3     1  UNL1       -0.3888
      2 O           5.4641   -4.0598    0.0000 O.3     1  UNL1       -0.5031
      3 O           3.7320   -3.0598    0.0000 O.3     1  UNL1       -0.4912
      4 O           5.9407    0.2336    0.0000 O.2     1  UNL1       -0.2918
      5 O           8.8762    0.8522    0.0000 O.3     1  UNL1       -0.5058
      6 O           5.5835    1.9284    0.0000 O.3     1  UNL1       -0.5058
      7 O           8.1618    4.2419    0.0000 O.3     1  UNL1       -0.5065
      8 C           7.8600   -2.0598    0.0000 C.3     1  UNL1       -0.0013
      9 C           7.2764   -1.2550    0.0000 C.3     1  UNL1       -0.0028
     10 C           7.2764   -2.8645    0.0000 C.3     1  UNL1       -0.0178
     11 C           8.8600   -2.0598    0.0000 C.3     1  UNL1        0.0642
     12 C           6.3301   -1.5598    0.0000 C.ar    1  UNL1       -0.0364
     13 C           6.3301   -2.5598    0.0000 C.ar    1  UNL1        0.0015
     14 C           7.5870   -0.3045    0.0000 C.3     1  UNL1        0.0179
     15 C           8.8600   -3.0598    0.0000 C.3     1  UNL1       -0.0360
     16 C           8.8600   -1.0598    0.0000 C.3     1  UNL1       -0.0360
     17 C           5.4641   -1.0598    0.0000 C.ar    1  UNL1       -0.0508
     18 C           5.4641   -3.0598    0.0000 C.ar    1  UNL1        0.1622
     19 C           4.5981   -1.5598    0.0000 C.ar    1  UNL1        0.0019
     20 C           4.5981   -2.5598    0.0000 C.ar    1  UNL1        0.1650
     21 C           6.9192    0.4398    0.0000 C.2     1  UNL1        0.1708
     22 C           3.7320   -1.0598    0.0000 C.3     1  UNL1       -0.0057
     23 C           7.2298    1.3903    0.0000 C.ar    1  UNL1        0.1003
     24 C           3.7320   -0.0597    0.0000 C.2     1  UNL1       -0.0809
     25 C           8.2083    1.5966    0.0000 C.ar    1  UNL1        0.1343
     26 C           6.5620    2.1346    0.0000 C.ar    1  UNL1        0.1343
     27 C           2.8660   -2.5598    0.0000 C.3     1  UNL1        0.0790
     28 C           2.8660    0.4403    0.0000 C.2     1  UNL1       -0.0793
     29 C           8.5190    2.5471    0.0000 C.ar    1  UNL1        0.0222
     30 C           6.8726    3.0852    0.0000 C.ar    1  UNL1        0.0222
     31 C           7.8512    3.2914    0.0000 C.ar    1  UNL1        0.1238
     32 C           2.8660    1.4402    0.0000 C.3     1  UNL1       -0.0440
     33 C           2.0000   -0.0597    0.0000 C.3     1  UNL1       -0.0440
     34 H           8.2462   -2.8169    0.0000 H       1  UNL1        0.0337
     35 H           6.8389   -0.8157    0.0000 H       1  UNL1        0.0357
     36 H           7.0253   -3.4314    0.0000 H       1  UNL1        0.0318
     37 H           7.8137   -3.1737    0.0000 H       1  UNL1        0.0318
     38 H           8.1339   -0.5965    0.0000 H       1  UNL1        0.0351
     39 H           7.9696    0.1834    0.0000 H       1  UNL1        0.0351
     40 H           9.4800   -1.0598    0.0000 H       1  UNL1        0.0257
     41 H           8.8600   -0.4397    0.0000 H       1  UNL1        0.0257
     42 H           8.2400   -1.0598    0.0000 H       1  UNL1        0.0257
     43 H           8.2400   -3.0598    0.0000 H       1  UNL1        0.0257
     44 H           8.8600   -3.6798    0.0000 H       1  UNL1        0.0257
     45 H           9.4800   -3.0598    0.0000 H       1  UNL1        0.0257
     46 H           5.4641   -0.4397    0.0000 H       1  UNL1        0.0624
     47 H          10.1700   -2.5967    0.0000 H       1  UNL1        0.2101
     48 H           3.1215   -0.9521    0.0000 H       1  UNL1        0.0357
     49 H           3.5200   -1.6424    0.0000 H       1  UNL1        0.0357
     50 H           4.9272   -4.3698    0.0000 H       1  UNL1        0.2923
     51 H           4.2690    0.2503    0.0000 H       1  UNL1        0.0575
     52 H           3.1760   -2.0228    0.0000 H       1  UNL1        0.0660
     53 H           2.3291   -2.2498    0.0000 H       1  UNL1        0.0660
     54 H           2.5560   -3.0967    0.0000 H       1  UNL1        0.0660
     55 H           9.1257    2.6749    0.0000 H       1  UNL1        0.0691
     56 H           6.4586    3.5466    0.0000 H       1  UNL1        0.0691
     57 H           9.4828    0.9801    0.0000 H       1  UNL1        0.2922
     58 H           5.1694    2.3899    0.0000 H       1  UNL1        0.2922
     59 H           3.4860    1.4402    0.0000 H       1  UNL1        0.0274
     60 H           2.8660    2.0602    0.0000 H       1  UNL1        0.0274
     61 H           2.2460    1.4402    0.0000 H       1  UNL1        0.0274
     62 H           1.6900    0.4772    0.0000 H       1  UNL1        0.0274
     63 H           1.4631   -0.3697    0.0000 H       1  UNL1        0.0274
     64 H           2.3100   -0.5967    0.0000 H       1  UNL1        0.0274
     65 H           8.7685    4.3698    0.0000 H       1  UNL1        0.2921
@<TRIPOS>BOND
     1     1    11    1
     2     1    47    1
     3     2    18    1
     4     2    50    1
     5     3    20    1
     6     3    27    1
     7     4    21    2
     8     5    25    1
     9     5    57    1
    10     6    26    1
    11     6    58    1
    12     7    31    1
    13     7    65    1
    14     8     9    1
    15     8    10    1
    16     8    11    1
    17     8    34    1
    18     9    12    1
    19     9    14    1
    20     9    35    1
    21    10    13    1
    22    10    36    1
    23    10    37    1
    24    11    15    1
    25    11    16    1
    26    12    13   ar
    27    12    17   ar
    28    13    18   ar
    29    14    21    1
    30    14    38    1
    31    14    39    1
    32    15    43    1
    33    15    44    1
    34    15    45    1
    35    16    40    1
    36    16    41    1
    37    16    42    1
    38    17    19   ar
    39    17    46    1
    40    18    20   ar
    41    19    20   ar
    42    19    22    1
    43    21    23    1
    44    22    24    1
    45    22    48    1
    46    22    49    1
    47    23    25   ar
    48    23    26   ar
    49    24    28    2
    50    24    51    1
    51    25    29   ar
    52    26    30   ar
    53    27    52    1
    54    27    53    1
    55    27    54    1
    56    28    32    1
    57    28    33    1
    58    29    31   ar
    59    29    55    1
    60    30    31   ar
    61    30    56    1
    62    32    59    1
    63    32    60    1
    64    32    61    1
    65    33    62    1
    66    33    63    1
    67    33    64    1
