@<TRIPOS>MOLECULE
IMPHY008170
 197 207 0 0 0
SMALL
GASTEIGER

@<TRIPOS>ATOM
      1 O           9.4651   -2.8147    0.0000 O.3     1  UNL1       -0.3449
      2 O          11.2189    6.4648    0.0000 O.3     1  UNL1       -0.4318
      3 O          12.1023    4.9749    0.0000 O.2     1  UNL1       -0.2501
      4 O           7.7331   -2.8147    0.0000 O.3     1  UNL1       -0.3405
      5 O           9.4651   -4.8147    0.0000 O.3     1  UNL1       -0.3378
      6 O          12.0676    7.9747    0.0000 O.3     1  UNL1       -0.3368
      7 O           7.7331   -5.8147    0.0000 O.3     1  UNL1       -0.3864
      8 O           6.0010   -4.8147    0.0000 O.3     1  UNL1       -0.3402
      9 O          12.9624    5.4849    0.0000 O.3     1  UNL1       -0.3366
     10 O          14.6828    6.5048    0.0000 O.3     1  UNL1       -0.3864
     11 O           8.5991   -6.3147    0.0000 O.3     1  UNL1       -0.3431
     12 O           6.0010   -1.8147    0.0000 O.3     1  UNL1       -0.3924
     13 O          14.6597    8.5047    0.0000 O.3     1  UNL1       -0.3869
     14 O           5.1350   -3.3147    0.0000 O.3     1  UNL1       -0.3461
     15 O          11.1972   -5.8147    0.0000 O.3     1  UNL1       -0.3841
     16 O          14.6944    5.5049    0.0000 O.3     1  UNL1       -0.3431
     17 O          11.1972   -7.8147    0.0000 O.3     1  UNL1       -0.3864
     18 O           4.2690   -5.8147    0.0000 O.3     1  UNL1       -0.3841
     19 O           9.4651   -8.8147    0.0000 O.3     1  UNL1       -0.3866
     20 O          12.9856    3.4850    0.0000 O.3     1  UNL1       -0.3841
     21 O           2.5369   -4.8147    0.0000 O.3     1  UNL1       -0.3864
     22 O          14.7291    2.5051    0.0000 O.3     1  UNL1       -0.3864
     23 O          16.4494    3.5251    0.0000 O.3     1  UNL1       -0.3402
     24 O           2.5369   -2.8147    0.0000 O.3     1  UNL1       -0.3869
     25 O          15.6008    2.0152    0.0000 O.3     1  UNL1       -0.3405
     26 O          18.1929    2.5452    0.0000 O.3     1  UNL1       -0.3841
     27 O          18.2161    0.5453    0.0000 O.3     1  UNL1       -0.3864
     28 O          16.4957   -0.4747    0.0000 O.3     1  UNL1       -0.3865
     29 O          14.7638   -0.4947    0.0000 O.3     1  UNL1       -0.3924
     30 C          10.3662    1.8856    0.0000 C.3     1  UNL1       -0.0194
     31 C           9.5021    1.3822    0.0000 C.3     1  UNL1       -0.0257
     32 C           9.4901    0.3407    0.0000 C.3     1  UNL1       -0.0250
     33 C          10.3623    2.8856    0.0000 C.3     1  UNL1       -0.0051
     34 C          10.3901   -0.1836    0.0000 C.3     1  UNL1       -0.0278
     35 C          11.2781    1.3822    0.0000 C.3     1  UNL1       -0.0463
     36 C          10.4027   -1.2685    0.0000 C.3     1  UNL1       -0.0052
     37 C          11.2902    0.3407    0.0000 C.3     1  UNL1       -0.0486
     38 C           9.4944    3.3822    0.0000 C.2     1  UNL1       -0.0629
     39 C           9.4743    4.4236    0.0000 C.3     1  UNL1       -0.0031
     40 C           8.6342    1.8789    0.0000 C.3     1  UNL1       -0.0306
     41 C           8.5402   -0.1836    0.0000 C.3     1  UNL1       -0.0447
     42 C          11.2704    3.3959    0.0000 C.3     1  UNL1       -0.0424
     43 C          10.3703    4.9549    0.0000 C.3     1  UNL1        0.0744
     44 C          11.3503    2.0630    0.0000 C.3     1  UNL1       -0.0585
     45 C           9.4651   -1.8147    0.0000 C.3     1  UNL1        0.0672
     46 C          11.2744    4.4375    0.0000 C.3     1  UNL1       -0.0359
     47 C           8.6260    0.8440    0.0000 C.3     1  UNL1       -0.0590
     48 C           8.5276   -1.2685    0.0000 C.3     1  UNL1       -0.0255
     49 C           8.6303    2.8789    0.0000 C.2     1  UNL1       -0.0836
     50 C          11.3478    2.7157    0.0000 C.3     1  UNL1       -0.0553
     51 C           8.5204    4.9406    0.0000 C.3     1  UNL1       -0.0403
     52 C          10.3745    6.0399    0.0000 C.3     1  UNL1       -0.0362
     53 C           8.4995    6.0254    0.0000 C.3     1  UNL1       -0.0343
     54 C          11.4026   -1.2608    0.0000 C.3     1  UNL1       -0.0572
     55 C          10.9093   -2.1307    0.0000 C.3     1  UNL1       -0.0572
     56 C           9.4328    6.5787    0.0000 C.3     1  UNL1       -0.0468
     57 C          11.2305    5.4648    0.0000 C.2     1  UNL1        0.3161
     58 C           7.9862    6.8836    0.0000 C.3     1  UNL1       -0.0598
     59 C           7.4996    6.0100    0.0000 C.3     1  UNL1       -0.0598
     60 C           8.5991   -3.3147    0.0000 C.3     1  UNL1        0.1886
     61 C           8.5991   -4.3147    0.0000 C.3     1  UNL1        0.1406
     62 C          12.0791    6.9748    0.0000 C.3     1  UNL1        0.2338
     63 C           7.7331   -4.8147    0.0000 C.3     1  UNL1        0.1148
     64 C           6.8671   -3.3147    0.0000 C.3     1  UNL1        0.1134
     65 C           6.8671   -4.3147    0.0000 C.3     1  UNL1        0.1184
     66 C          12.9509    6.4848    0.0000 C.3     1  UNL1        0.1520
     67 C          13.8111    6.9948    0.0000 C.3     1  UNL1        0.1152
     68 C           6.0010   -2.8147    0.0000 C.3     1  UNL1        0.0730
     69 C           9.4651   -5.8147    0.0000 C.3     1  UNL1        0.1884
     70 C          12.9278    8.4847    0.0000 C.3     1  UNL1        0.0802
     71 C          13.7995    7.9947    0.0000 C.3     1  UNL1        0.1070
     72 C          10.3312   -6.3147    0.0000 C.3     1  UNL1        0.1341
     73 C           5.1350   -4.3147    0.0000 C.3     1  UNL1        0.1880
     74 C          13.8342    4.9949    0.0000 C.3     1  UNL1        0.1885
     75 C          10.3312   -7.3147    0.0000 C.3     1  UNL1        0.1140
     76 C           8.5991   -7.3147    0.0000 C.3     1  UNL1        0.0873
     77 C           4.2690   -4.8147    0.0000 C.3     1  UNL1        0.1341
     78 C           9.4651   -7.8147    0.0000 C.3     1  UNL1        0.1095
     79 C          13.8458    3.9950    0.0000 C.3     1  UNL1        0.1341
     80 C           3.4030   -4.3147    0.0000 C.3     1  UNL1        0.1137
     81 C          14.7175    3.5050    0.0000 C.3     1  UNL1        0.1143
     82 C          15.5661    5.0150    0.0000 C.3     1  UNL1        0.0877
     83 C           7.7331   -7.8147    0.0000 C.3     1  UNL1       -0.0361
     84 C           4.2690   -2.8147    0.0000 C.3     1  UNL1        0.0792
     85 C          15.5777    4.0150    0.0000 C.3     1  UNL1        0.1160
     86 C           3.4030   -3.3147    0.0000 C.3     1  UNL1        0.1069
     87 C          16.4263    5.5249    0.0000 C.3     1  UNL1       -0.0361
     88 C          16.4610    2.5251    0.0000 C.3     1  UNL1        0.1884
     89 C          17.3328    2.0352    0.0000 C.3     1  UNL1        0.1341
     90 C          17.3443    1.0352    0.0000 C.3     1  UNL1        0.1141
     91 C          15.6124    1.0152    0.0000 C.3     1  UNL1        0.1130
     92 C          16.4841    0.5253    0.0000 C.3     1  UNL1        0.1119
     93 C          14.7522    0.5052    0.0000 C.3     1  UNL1        0.0730
     94 H          10.2366    0.9544    0.0000 H       1  UNL1        0.0315
     95 H          11.1295   -0.6029    0.0000 H       1  UNL1        0.0312
     96 H          11.8902    1.2832    0.0000 H       1  UNL1        0.0271
     97 H          11.4804    1.9683    0.0000 H       1  UNL1        0.0271
     98 H          11.5060   -0.2406    0.0000 H       1  UNL1        0.0268
     99 H          11.8998    0.4538    0.0000 H       1  UNL1        0.0268
    100 H           8.7482    3.9817    0.0000 H       1  UNL1        0.0357
    101 H           8.0232    1.9842    0.0000 H       1  UNL1        0.0310
    102 H           8.4244    1.2955    0.0000 H       1  UNL1        0.0310
    103 H           8.3379    0.4024    0.0000 H       1  UNL1        0.0271
    104 H           7.9281   -0.2826    0.0000 H       1  UNL1        0.0271
    105 H          11.4772    2.8114    0.0000 H       1  UNL1        0.0274
    106 H          11.8816    3.4996    0.0000 H       1  UNL1        0.0274
    107 H          11.4603    1.4528    0.0000 H       1  UNL1        0.0235
    108 H          11.9605    2.1730    0.0000 H       1  UNL1        0.0235
    109 H          11.2403    2.6732    0.0000 H       1  UNL1        0.0235
    110 H          10.0027   -2.1236    0.0000 H       1  UNL1        0.0602
    111 H          11.8848    4.3291    0.0000 H       1  UNL1        0.0276
    112 H          11.4857    5.0204    0.0000 H       1  UNL1        0.0276
    113 H           8.9380    1.3797    0.0000 H       1  UNL1        0.0235
    114 H           8.0902    1.1561    0.0000 H       1  UNL1        0.0235
    115 H           8.3139    0.3083    0.0000 H       1  UNL1        0.0235
    116 H           7.9180   -1.1554    0.0000 H       1  UNL1        0.0290
    117 H           8.3118   -1.8498    0.0000 H       1  UNL1        0.0290
    118 H           8.0922    3.1868    0.0000 H       1  UNL1        0.0572
    119 H          11.2425    2.1047    0.0000 H       1  UNL1        0.0238
    120 H          11.9588    2.6104    0.0000 H       1  UNL1        0.0238
    121 H          11.4531    3.3267    0.0000 H       1  UNL1        0.0238
    122 H           7.9076    5.0349    0.0000 H       1  UNL1        0.0276
    123 H           8.3226    4.3530    0.0000 H       1  UNL1        0.0276
    124 H          10.9849    5.9314    0.0000 H       1  UNL1        0.0276
    125 H          10.5858    6.6227    0.0000 H       1  UNL1        0.0276
    126 H          11.4074   -1.8808    0.0000 H       1  UNL1        0.0236
    127 H          12.0226   -1.2561    0.0000 H       1  UNL1        0.0236
    128 H          11.3979   -0.6409    0.0000 H       1  UNL1        0.0236
    129 H          10.3748   -2.4448    0.0000 H       1  UNL1        0.0236
    130 H          11.2235   -2.6652    0.0000 H       1  UNL1        0.0236
    131 H          11.4439   -1.8166    0.0000 H       1  UNL1        0.0236
    132 H           9.8282    7.0562    0.0000 H       1  UNL1        0.0271
    133 H           9.0300    7.0501    0.0000 H       1  UNL1        0.0271
    134 H           7.4900    6.6299    0.0000 H       1  UNL1        0.0235
    135 H           6.8797    6.0004    0.0000 H       1  UNL1        0.0235
    136 H           7.5092    5.3900    0.0000 H       1  UNL1        0.0235
    137 H           8.5183    7.2018    0.0000 H       1  UNL1        0.0235
    138 H           7.6680    7.4157    0.0000 H       1  UNL1        0.0235
    139 H           7.4541    6.5654    0.0000 H       1  UNL1        0.0235
    140 H           8.5991   -2.6947    0.0000 H       1  UNL1        0.0938
    141 H           8.5991   -4.9347    0.0000 H       1  UNL1        0.0675
    142 H          12.0863    6.3548    0.0000 H       1  UNL1        0.1085
    143 H           7.1962   -5.1247    0.0000 H       1  UNL1        0.0648
    144 H           6.8671   -2.6947    0.0000 H       1  UNL1        0.0647
    145 H           6.3301   -4.0047    0.0000 H       1  UNL1        0.0651
    146 H          13.4914    6.1810    0.0000 H       1  UNL1        0.0687
    147 H          14.3444    7.3110    0.0000 H       1  UNL1        0.0648
    148 H           5.3905   -2.7070    0.0000 H       1  UNL1        0.0584
    149 H           5.7890   -3.3973    0.0000 H       1  UNL1        0.0584
    150 H          10.0021   -5.5047    0.0000 H       1  UNL1        0.0938
    151 H          13.3208    8.9642    0.0000 H       1  UNL1        0.0588
    152 H          12.5238    8.9550    0.0000 H       1  UNL1        0.0588
    153 H           7.1962   -6.1247    0.0000 H       1  UNL1        0.2100
    154 H          13.7923    8.6147    0.0000 H       1  UNL1        0.0643
    155 H          10.8681   -6.6247    0.0000 H       1  UNL1        0.0671
    156 H           5.1350   -4.9347    0.0000 H       1  UNL1        0.0937
    157 H          13.8270    5.6149    0.0000 H       1  UNL1        0.0938
    158 H          15.2161    6.8210    0.0000 H       1  UNL1        0.2100
    159 H           5.4641   -1.5047    0.0000 H       1  UNL1        0.2095
    160 H          10.3312   -7.9347    0.0000 H       1  UNL1        0.0648
    161 H          14.6525    9.1247    0.0000 H       1  UNL1        0.2100
    162 H           8.0622   -7.0047    0.0000 H       1  UNL1        0.0621
    163 H           3.7320   -5.1247    0.0000 H       1  UNL1        0.0671
    164 H           8.9282   -8.1247    0.0000 H       1  UNL1        0.0646
    165 H          13.3053    4.2988    0.0000 H       1  UNL1        0.0671
    166 H          11.7341   -6.1247    0.0000 H       1  UNL1        0.2101
    167 H           2.8660   -4.0047    0.0000 H       1  UNL1        0.0647
    168 H          14.1842    3.1888    0.0000 H       1  UNL1        0.0648
    169 H          15.5590    5.6349    0.0000 H       1  UNL1        0.0621
    170 H           7.4231   -7.2777    0.0000 H       1  UNL1        0.0255
    171 H           7.1962   -8.1247    0.0000 H       1  UNL1        0.0255
    172 H           8.0431   -8.3516    0.0000 H       1  UNL1        0.0255
    173 H           4.6675   -2.3397    0.0000 H       1  UNL1        0.0587
    174 H           3.8705   -2.3397    0.0000 H       1  UNL1        0.0587
    175 H          16.1110    4.3312    0.0000 H       1  UNL1        0.0650
    176 H           3.4030   -2.6947    0.0000 H       1  UNL1        0.0643
    177 H          11.1972   -8.4347    0.0000 H       1  UNL1        0.2100
    178 H           3.7320   -6.1247    0.0000 H       1  UNL1        0.2101
    179 H          10.0021   -9.1247    0.0000 H       1  UNL1        0.2100
    180 H          12.9927    2.8650    0.0000 H       1  UNL1        0.2101
    181 H          16.7425    4.9916    0.0000 H       1  UNL1        0.0255
    182 H          16.9596    5.8411    0.0000 H       1  UNL1        0.0255
    183 H          16.1101    6.0582    0.0000 H       1  UNL1        0.0255
    184 H           2.0000   -4.5047    0.0000 H       1  UNL1        0.2100
    185 H          14.1958    2.1889    0.0000 H       1  UNL1        0.2100
    186 H           2.5369   -2.1947    0.0000 H       1  UNL1        0.2100
    187 H          16.9943    2.8413    0.0000 H       1  UNL1        0.0938
    188 H          17.8732    1.7314    0.0000 H       1  UNL1        0.0671
    189 H          17.3515    0.4153    0.0000 H       1  UNL1        0.0648
    190 H          15.0719    1.3190    0.0000 H       1  UNL1        0.0647
    191 H          15.9508    0.2091    0.0000 H       1  UNL1        0.0647
    192 H          18.7334    2.2414    0.0000 H       1  UNL1        0.2101
    193 H          14.5334    1.0854    0.0000 H       1  UNL1        0.0584
    194 H          14.1429    0.3905    0.0000 H       1  UNL1        0.0584
    195 H          18.2232   -0.0747    0.0000 H       1  UNL1        0.2100
    196 H          17.0362   -0.7784    0.0000 H       1  UNL1        0.2100
    197 H          14.2304   -0.8109    0.0000 H       1  UNL1        0.2095
@<TRIPOS>BOND
     1    45     1    1
     2    60     1    1
     3     2    57    1
     4    62     2    1
     5     3    57    2
     6     4    60    1
     7     4    64    1
     8    61     5    1
     9    69     5    1
    10     6    62    1
    11     6    70    1
    12    63     7    1
    13     7   153    1
    14    65     8    1
    15    73     8    1
    16    66     9    1
    17    74     9    1
    18    67    10    1
    19    10   158    1
    20    11    69    1
    21    11    76    1
    22    12    68    1
    23    12   159    1
    24    71    13    1
    25    13   161    1
    26    14    73    1
    27    14    84    1
    28    72    15    1
    29    15   166    1
    30    16    74    1
    31    16    82    1
    32    75    17    1
    33    17   177    1
    34    77    18    1
    35    18   178    1
    36    78    19    1
    37    19   179    1
    38    79    20    1
    39    20   180    1
    40    80    21    1
    41    21   184    1
    42    81    22    1
    43    22   185    1
    44    85    23    1
    45    88    23    1
    46    86    24    1
    47    24   186    1
    48    25    88    1
    49    25    91    1
    50    89    26    1
    51    26   192    1
    52    90    27    1
    53    27   195    1
    54    92    28    1
    55    28   196    1
    56    29    93    1
    57    29   197    1
    58    30    31    1
    59    30    33    1
    60    30    35    1
    61    30    44    1
    62    31    32    1
    63    31    40    1
    64    31    94    1
    65    32    34    1
    66    32    41    1
    67    32    47    1
    68    33    38    1
    69    33    42    1
    70    33    50    1
    71    34    36    1
    72    34    37    1
    73    34    95    1
    74    35    37    1
    75    35    96    1
    76    35    97    1
    77    36    45    1
    78    36    54    1
    79    36    55    1
    80    37    98    1
    81    37    99    1
    82    38    39    1
    83    38    49    2
    84    39    43    1
    85    39    51    1
    86    39   100    1
    87    40    49    1
    88    40   101    1
    89    40   102    1
    90    41    48    1
    91    41   103    1
    92    41   104    1
    93    42    46    1
    94    42   105    1
    95    42   106    1
    96    43    46    1
    97    43    52    1
    98    43    57    1
    99    44   107    1
   100    44   108    1
   101    44   109    1
   102    45    48    1
   103    45   110    1
   104    46   111    1
   105    46   112    1
   106    47   113    1
   107    47   114    1
   108    47   115    1
   109    48   116    1
   110    48   117    1
   111    49   118    1
   112    50   119    1
   113    50   120    1
   114    50   121    1
   115    51    53    1
   116    51   122    1
   117    51   123    1
   118    52    56    1
   119    52   124    1
   120    52   125    1
   121    53    56    1
   122    53    58    1
   123    53    59    1
   124    54   126    1
   125    54   127    1
   126    54   128    1
   127    55   129    1
   128    55   130    1
   129    55   131    1
   130    56   132    1
   131    56   133    1
   132    58   137    1
   133    58   138    1
   134    58   139    1
   135    59   134    1
   136    59   135    1
   137    59   136    1
   138    60    61    1
   139    60   140    1
   140    61    63    1
   141    61   141    1
   142    62    66    1
   143    62   142    1
   144    63    65    1
   145    63   143    1
   146    64    65    1
   147    64    68    1
   148    64   144    1
   149    65   145    1
   150    66    67    1
   151    66   146    1
   152    67    71    1
   153    67   147    1
   154    68   148    1
   155    68   149    1
   156    69    72    1
   157    69   150    1
   158    70    71    1
   159    70   151    1
   160    70   152    1
   161    71   154    1
   162    72    75    1
   163    72   155    1
   164    73    77    1
   165    73   156    1
   166    74    79    1
   167    74   157    1
   168    75    78    1
   169    75   160    1
   170    76    78    1
   171    76    83    1
   172    76   162    1
   173    77    80    1
   174    77   163    1
   175    78   164    1
   176    79    81    1
   177    79   165    1
   178    80    86    1
   179    80   167    1
   180    81    85    1
   181    81   168    1
   182    82    85    1
   183    82    87    1
   184    82   169    1
   185    83   170    1
   186    83   171    1
   187    83   172    1
   188    84    86    1
   189    84   173    1
   190    84   174    1
   191    85   175    1
   192    86   176    1
   193    87   181    1
   194    87   182    1
   195    87   183    1
   196    88    89    1
   197    88   187    1
   198    89    90    1
   199    89   188    1
   200    90    92    1
   201    90   189    1
   202    91    92    1
   203    91    93    1
   204    91   190    1
   205    92   191    1
   206    93   193    1
   207    93   194    1
