@<TRIPOS>MOLECULE
IMPHY001091
 42 45 0 0 0
SMALL
GASTEIGER

@<TRIPOS>ATOM
      1 O           8.6503   -1.1329    0.0000 O.3     1  UNL1       -0.4809
      2 O           6.0682   -1.5914    0.0000 O.2     1  UNL1       -0.4618
      3 O          10.3984    1.9086    0.0000 O.3     1  UNL1       -0.5061
      4 O           6.0682    1.4086    0.0000 O.2     1  UNL1       -0.2863
      5 O           4.3198    1.4432    0.0000 O.3     1  UNL1       -0.5058
      6 O           2.5381   -1.6156    0.0000 O.3     1  UNL1       -0.5065
      7 C           9.5483   -1.6607    0.0000 C.3     1  UNL1        0.1235
      8 C           8.6663   -0.0914    0.0000 C.ar    1  UNL1        0.1402
      9 C           9.5323    0.4086    0.0000 C.ar    1  UNL1        0.0585
     10 C          10.4504   -1.1398    0.0000 C.2     1  UNL1       -0.0408
     11 C           7.8003    0.4086    0.0000 C.ar    1  UNL1        0.0313
     12 C          10.0450   -2.5286    0.0000 C.3     1  UNL1       -0.0215
     13 C           9.0450   -2.5248    0.0000 C.3     1  UNL1       -0.0215
     14 C          10.4424   -0.0982    0.0000 C.2     1  UNL1       -0.0478
     15 C           6.9343   -0.0914    0.0000 C.ar    1  UNL1        0.0679
     16 C           9.5323    1.4086    0.0000 C.ar    1  UNL1        0.1275
     17 C           7.8003    1.4086    0.0000 C.ar    1  UNL1       -0.0468
     18 C           8.6663    1.9086    0.0000 C.ar    1  UNL1       -0.0188
     19 C           6.0682    0.4086    0.0000 C.ar    1  UNL1        0.2038
     20 C           5.2022   -0.0914    0.0000 C.ar    1  UNL1        0.1060
     21 C           6.9343   -1.0914    0.0000 C.ar    1  UNL1        0.1040
     22 C           5.2022   -1.0914    0.0000 C.ar    1  UNL1        0.1454
     23 C           4.3083    0.4433    0.0000 C.ar    1  UNL1        0.1347
     24 C           4.3083   -1.6261    0.0000 C.ar    1  UNL1        0.0231
     25 C           3.4022   -0.0706    0.0000 C.ar    1  UNL1        0.0223
     26 C           3.4022   -1.1122    0.0000 C.ar    1  UNL1        0.1239
     27 H          10.9885   -1.4478    0.0000 H       1  UNL1        0.0611
     28 H           9.5068   -2.8365    0.0000 H       1  UNL1        0.0271
     29 H          10.3529   -3.0667    0.0000 H       1  UNL1        0.0271
     30 H           8.5092   -2.2127    0.0000 H       1  UNL1        0.0271
     31 H           8.7329   -3.0605    0.0000 H       1  UNL1        0.0271
     32 H           9.5807   -2.8368    0.0000 H       1  UNL1        0.0271
     33 H          10.5831   -2.2207    0.0000 H       1  UNL1        0.0271
     34 H          10.9757    0.2179    0.0000 H       1  UNL1        0.0624
     35 H           7.2634    1.7186    0.0000 H       1  UNL1        0.0626
     36 H           8.6663    2.5286    0.0000 H       1  UNL1        0.0654
     37 H           7.4712   -1.4014    0.0000 H       1  UNL1        0.1037
     38 H           4.3154   -2.2460    0.0000 H       1  UNL1        0.0691
     39 H           2.8665    0.2415    0.0000 H       1  UNL1        0.0691
     40 H          10.3984    2.5286    0.0000 H       1  UNL1        0.2922
     41 H           3.7865    1.7594    0.0000 H       1  UNL1        0.2922
     42 H           2.0000   -1.3076    0.0000 H       1  UNL1        0.2921
@<TRIPOS>BOND
     1     1     7    1
     2     1     8    1
     3     2    21   ar
     4     2    22   ar
     5     3    16    1
     6     3    40    1
     7     4    19    2
     8     5    23    1
     9     5    41    1
    10     6    26    1
    11     6    42    1
    12     7    10    1
    13     7    12    1
    14     7    13    1
    15     8     9   ar
    16     8    11   ar
    17     9    14    1
    18     9    16   ar
    19    10    14    2
    20    10    27    1
    21    11    15    1
    22    11    17   ar
    23    12    28    1
    24    12    29    1
    25    12    33    1
    26    13    30    1
    27    13    31    1
    28    13    32    1
    29    14    34    1
    30    15    19   ar
    31    15    21   ar
    32    16    18   ar
    33    17    18   ar
    34    17    35    1
    35    18    36    1
    36    19    20   ar
    37    20    22   ar
    38    20    23   ar
    39    21    37    1
    40    22    24   ar
    41    23    25   ar
    42    24    26   ar
    43    24    38    1
    44    25    26   ar
    45    25    39    1
