@<TRIPOS>MOLECULE
IMPHY016170
 30 30 0 0 0
SMALL
GASTEIGER

@<TRIPOS>ATOM
      1 C           3.7320    1.0000    0.0000 C.3     1  UNL1       -0.0387
      2 C           2.8660    0.5000    0.0000 C.3     1  UNL1       -0.0408
      3 C           4.5981    0.5000    0.0000 C.3     1  UNL1       -0.0408
      4 C           3.7320   -1.0000    0.0000 C.3     1  UNL1       -0.0434
      5 C           2.8660   -0.5000    0.0000 C.3     1  UNL1       -0.0476
      6 C           4.5981   -0.5000    0.0000 C.3     1  UNL1       -0.0476
      7 C           3.7320    2.0000    0.0000 C.3     1  UNL1       -0.0619
      8 C           2.0000    1.0000    0.0000 C.3     1  UNL1       -0.0622
      9 C           5.4641    1.0000    0.0000 C.3     1  UNL1       -0.0622
     10 C           3.7320   -2.0000    0.0000 C.3     1  UNL1       -0.0624
     11 H           4.2690    1.3100    0.0000 H       1  UNL1        0.0303
     12 H           2.8660    1.1200    0.0000 H       1  UNL1        0.0301
     13 H           5.1350    0.1900    0.0000 H       1  UNL1        0.0301
     14 H           4.2690   -1.3100    0.0000 H       1  UNL1        0.0298
     15 H           2.2554   -0.3923    0.0000 H       1  UNL1        0.0271
     16 H           2.6540   -1.0826    0.0000 H       1  UNL1        0.0271
     17 H           4.8101   -1.0826    0.0000 H       1  UNL1        0.0271
     18 H           5.2087   -0.3923    0.0000 H       1  UNL1        0.0271
     19 H           4.3520    2.0000    0.0000 H       1  UNL1        0.0233
     20 H           3.7320    2.6200    0.0000 H       1  UNL1        0.0233
     21 H           3.1120    2.0000    0.0000 H       1  UNL1        0.0233
     22 H           2.3100    1.5369    0.0000 H       1  UNL1        0.0233
     23 H           1.4631    1.3100    0.0000 H       1  UNL1        0.0233
     24 H           1.6900    0.4631    0.0000 H       1  UNL1        0.0233
     25 H           5.7741    0.4631    0.0000 H       1  UNL1        0.0233
     26 H           6.0010    1.3100    0.0000 H       1  UNL1        0.0233
     27 H           5.1541    1.5369    0.0000 H       1  UNL1        0.0233
     28 H           3.1120   -2.0000    0.0000 H       1  UNL1        0.0232
     29 H           3.7320   -2.6200    0.0000 H       1  UNL1        0.0232
     30 H           4.3520   -2.0000    0.0000 H       1  UNL1        0.0232
@<TRIPOS>BOND
     1     1     2    1
     2     1     3    1
     3     1     7    1
     4     1    11    1
     5     2     5    1
     6     2     8    1
     7     2    12    1
     8     3     6    1
     9     3     9    1
    10     3    13    1
    11     4     5    1
    12     4     6    1
    13     4    10    1
    14     4    14    1
    15     5    15    1
    16     5    16    1
    17     6    17    1
    18     6    18    1
    19     7    19    1
    20     7    20    1
    21     7    21    1
    22     8    22    1
    23     8    23    1
    24     8    24    1
    25     9    25    1
    26     9    26    1
    27     9    27    1
    28    10    28    1
    29    10    29    1
    30    10    30    1
