@<TRIPOS>MOLECULE
IMPHY001109
 17 16 0 0 0
SMALL
GASTEIGER

@<TRIPOS>ATOM
      1 O           5.4641    0.7500    0.0000 O.3     1  UNL1       -0.4806
      2 O           4.5981   -0.7500    0.0000 O.2     1  UNL1       -0.2510
      3 C           2.8660    0.2500    0.0000 C.3     1  UNL1       -0.0367
      4 C           3.7320    0.7500    0.0000 C.3     1  UNL1        0.0471
      5 C           2.0000    0.7500    0.0000 C.3     1  UNL1       -0.0622
      6 C           2.8660   -0.7500    0.0000 C.3     1  UNL1       -0.0622
      7 C           4.5981    0.2500    0.0000 C.2     1  UNL1        0.3049
      8 H           2.8660    0.8700    0.0000 H       1  UNL1        0.0301
      9 H           4.1306    1.2250    0.0000 H       1  UNL1        0.0380
     10 H           3.3335    1.2250    0.0000 H       1  UNL1        0.0380
     11 H           2.3100    1.2869    0.0000 H       1  UNL1        0.0232
     12 H           1.4631    1.0600    0.0000 H       1  UNL1        0.0232
     13 H           1.6900    0.2131    0.0000 H       1  UNL1        0.0232
     14 H           2.2460   -0.7500    0.0000 H       1  UNL1        0.0232
     15 H           2.8660   -1.3700    0.0000 H       1  UNL1        0.0232
     16 H           3.4860   -0.7500    0.0000 H       1  UNL1        0.0232
     17 H           6.0010    0.4400    0.0000 H       1  UNL1        0.2951
@<TRIPOS>BOND
     1     1     7    1
     2     1    17    1
     3     2     7    2
     4     3     4    1
     5     3     5    1
     6     3     6    1
     7     3     8    1
     8     4     7    1
     9     4     9    1
    10     4    10    1
    11     5    11    1
    12     5    12    1
    13     5    13    1
    14     6    14    1
    15     6    15    1
    16     6    16    1
