@<TRIPOS>MOLECULE
IMPHY013085
 38 41 0 0 0
SMALL
GASTEIGER

@<TRIPOS>ATOM
      1 O           2.5673    1.0898    0.0000 O.3     1  UNL1       -0.4569
      2 O           2.4706   -1.2075    0.0000 O.3     1  UNL1       -0.3794
      3 O           2.8403   -0.6654    0.0000 O.2     1  UNL1       -0.2452
      4 N           5.8292    0.5898    0.0000 N.3     1  UNL1       -0.2884
      5 C           4.9632    0.0898    0.0000 C.3     1  UNL1        0.0777
      6 C           5.1724   -0.8820    0.0000 C.2     1  UNL1       -0.0474
      7 C           3.9476   -0.1124    0.0000 C.3     1  UNL1        0.0005
      8 C           4.0971    0.5898    0.0000 C.2     1  UNL1        0.0633
      9 C           6.5662   -0.0772    0.0000 C.3     1  UNL1        0.0038
     10 C           6.1611   -0.9850    0.0000 C.3     1  UNL1       -0.0168
     11 C           5.8292    1.5898    0.0000 C.3     1  UNL1        0.0038
     12 C           3.4700   -1.1738    0.0000 C.3     1  UNL1        0.0640
     13 C           4.0971    1.5898    0.0000 C.2     1  UNL1       -0.0194
     14 C           4.9632    2.0898    0.0000 C.3     1  UNL1       -0.0149
     15 C           4.0122   -2.0198    0.0000 C.3     1  UNL1       -0.0080
     16 C           4.8702   -1.8724    0.0000 C.2     1  UNL1       -0.0802
     17 C           3.1509    0.2851    0.0000 C.2     1  UNL1        0.3376
     18 C           3.1509    1.8946    0.0000 C.3     1  UNL1        0.1148
     19 C           2.0000   -2.0898    0.0000 C.3     1  UNL1        0.0368
     20 H           3.9538    0.5075    0.0000 H       1  UNL1        0.0315
     21 H           3.3421    0.0207    0.0000 H       1  UNL1        0.0315
     22 H           7.1027   -0.3880    0.0000 H       1  UNL1        0.0430
     23 H           6.9316    0.4236    0.0000 H       1  UNL1        0.0430
     24 H           6.0324   -1.5915    0.0000 H       1  UNL1        0.0323
     25 H           6.7507   -1.1768    0.0000 H       1  UNL1        0.0323
     26 H           6.4398    1.4822    0.0000 H       1  UNL1        0.0430
     27 H           6.0412    2.1724    0.0000 H       1  UNL1        0.0430
     28 H           3.1818   -1.7228    0.0000 H       1  UNL1        0.0599
     29 H           5.3617    2.5648    0.0000 H       1  UNL1        0.0324
     30 H           4.5646    2.5648    0.0000 H       1  UNL1        0.0324
     31 H           3.4504   -2.2820    0.0000 H       1  UNL1        0.0332
     32 H           4.1975   -2.6115    0.0000 H       1  UNL1        0.0332
     33 H           5.2801   -2.3375    0.0000 H       1  UNL1        0.0573
     34 H           3.4020    2.4615    0.0000 H       1  UNL1        0.0746
     35 H           2.6135    2.2038    0.0000 H       1  UNL1        0.0746
     36 H           1.4529   -1.7981    0.0000 H       1  UNL1        0.0524
     37 H           1.7082   -2.6369    0.0000 H       1  UNL1        0.0524
     38 H           2.5471   -2.3816    0.0000 H       1  UNL1        0.0524
@<TRIPOS>BOND
     1     1    17    1
     2     1    18    1
     3     2    12    1
     4     2    19    1
     5     3    17    2
     6     4     5    1
     7     4     9    1
     8     4    11    1
     9     5     6    1
    10     5     7    1
    11     5     8    1
    12     6    10    1
    13     6    16    2
    14     7    12    1
    15     7    20    1
    16     7    21    1
    17     8    13    2
    18     8    17    1
    19     9    10    1
    20     9    22    1
    21     9    23    1
    22    10    24    1
    23    10    25    1
    24    11    14    1
    25    11    26    1
    26    11    27    1
    27    12    15    1
    28    12    28    1
    29    13    14    1
    30    13    18    1
    31    14    29    1
    32    14    30    1
    33    15    16    1
    34    15    31    1
    35    15    32    1
    36    16    33    1
    37    18    34    1
    38    18    35    1
    39    19    36    1
    40    19    37    1
    41    19    38    1
