@<TRIPOS>MOLECULE
IMPHY010393
 73 77 0 0 0
SMALL
GASTEIGER

@<TRIPOS>ATOM
      1 O           5.1350   -3.5235    0.0000 O.3     1  UNL1       -0.3313
      2 O          12.9705    4.0223    0.0000 O.3     1  UNL1       -0.3313
      3 O           6.8671   -3.5235    0.0000 O.3     1  UNL1       -0.4607
      4 O          12.0987    2.5256    0.0000 O.3     1  UNL1       -0.4608
      5 O           5.1350   -6.5235    0.0000 O.3     1  UNL1       -0.3864
      6 O           3.4030   -5.5235    0.0000 O.3     1  UNL1       -0.3865
      7 O          10.3782    5.5323    0.0000 O.3     1  UNL1       -0.3864
      8 O          12.1141    6.5256    0.0000 O.3     1  UNL1       -0.3865
      9 O           6.8671   -5.5235    0.0000 O.3     1  UNL1       -0.3829
     10 O          10.3705    3.5323    0.0000 O.3     1  UNL1       -0.3829
     11 O           2.5369   -4.0235    0.0000 O.3     1  UNL1       -0.3924
     12 O          14.7064    5.0156    0.0000 O.3     1  UNL1       -0.3924
     13 O           8.6230   -0.4610    0.0000 O.3     1  UNL1       -0.4830
     14 O           6.0308    1.0490    0.0000 O.2     1  UNL1       -0.2918
     15 C           5.1350   -5.5235    0.0000 C.3     1  UNL1        0.1152
     16 C           4.2690   -5.0235    0.0000 C.3     1  UNL1        0.1120
     17 C          11.2423    5.0289    0.0000 C.3     1  UNL1        0.1152
     18 C          12.1102    5.5256    0.0000 C.3     1  UNL1        0.1120
     19 C           6.0010   -5.0235    0.0000 C.3     1  UNL1        0.1454
     20 C           4.2690   -4.0235    0.0000 C.3     1  UNL1        0.1140
     21 C          11.2384    4.0289    0.0000 C.3     1  UNL1        0.1454
     22 C          12.9743    5.0223    0.0000 C.3     1  UNL1        0.1140
     23 C           6.0010   -4.0235    0.0000 C.3     1  UNL1        0.2308
     24 C          12.1025    3.5256    0.0000 C.3     1  UNL1        0.2308
     25 C           3.4030   -3.5235    0.0000 C.3     1  UNL1        0.0731
     26 C          13.8423    5.5189    0.0000 C.3     1  UNL1        0.0731
     27 C           8.6269    0.5390    0.0000 C.3     1  UNL1        0.1322
     28 C           6.8671   -2.5235    0.0000 C.ar    1  UNL1        0.1275
     29 C          11.2307    2.0290    0.0000 C.ar    1  UNL1        0.1240
     30 C           7.7628    1.0423    0.0000 C.3     1  UNL1        0.0519
     31 C           9.4948    1.0356    0.0000 C.ar    1  UNL1       -0.0067
     32 C           7.7551   -0.9577    0.0000 C.ar    1  UNL1        0.1353
     33 C           6.8910   -0.4543    0.0000 C.ar    1  UNL1        0.0594
     34 C           7.7671   -1.9992    0.0000 C.ar    1  UNL1        0.0226
     35 C           6.8948    0.5457    0.0000 C.2     1  UNL1        0.1705
     36 C           5.9670   -1.9992    0.0000 C.ar    1  UNL1       -0.0189
     37 C          10.3666    2.5323    0.0000 C.ar    1  UNL1       -0.0195
     38 C          11.2269    1.0290    0.0000 C.ar    1  UNL1       -0.0195
     39 C           9.4987    2.0356    0.0000 C.ar    1  UNL1       -0.0516
     40 C          10.3589    0.5323    0.0000 C.ar    1  UNL1       -0.0516
     41 C           5.9790   -0.9577    0.0000 C.ar    1  UNL1       -0.0443
     42 H           5.6720   -5.8335    0.0000 H       1  UNL1        0.0648
     43 H           4.2690   -5.6435    0.0000 H       1  UNL1        0.0647
     44 H          10.7042    4.7210    0.0000 H       1  UNL1        0.0648
     45 H          11.5745    5.8377    0.0000 H       1  UNL1        0.0647
     46 H           6.5380   -4.7135    0.0000 H       1  UNL1        0.0683
     47 H           4.2690   -3.4035    0.0000 H       1  UNL1        0.0647
     48 H          12.1854    3.7169    0.0000 H       1  UNL1        0.0683
     49 H          13.5101    4.7102    0.0000 H       1  UNL1        0.0647
     50 H           6.0010   -3.4035    0.0000 H       1  UNL1        0.1084
     51 H          11.5644    3.2177    0.0000 H       1  UNL1        0.1084
     52 H           3.8015   -3.0486    0.0000 H       1  UNL1        0.0584
     53 H           3.0044   -3.0486    0.0000 H       1  UNL1        0.0584
     54 H          14.2426    5.9923    0.0000 H       1  UNL1        0.0584
     55 H          13.4456    5.9954    0.0000 H       1  UNL1        0.0584
     56 H           4.5981   -6.8335    0.0000 H       1  UNL1        0.2100
     57 H           3.4030   -6.1435    0.0000 H       1  UNL1        0.2100
     58 H          10.3806    6.1523    0.0000 H       1  UNL1        0.2100
     59 H          12.6522    6.8335    0.0000 H       1  UNL1        0.2100
     60 H           7.4040   -5.2135    0.0000 H       1  UNL1        0.2102
     61 H           9.8348    3.8444    0.0000 H       1  UNL1        0.2102
     62 H           8.6293    1.1590    0.0000 H       1  UNL1        0.0789
     63 H           8.1632    1.5157    0.0000 H       1  UNL1        0.0385
     64 H           7.3661    1.5188    0.0000 H       1  UNL1        0.0385
     65 H           8.3064   -2.3051    0.0000 H       1  UNL1        0.0691
     66 H           2.0000   -3.7135    0.0000 H       1  UNL1        0.2095
     67 H          15.2445    5.3235    0.0000 H       1  UNL1        0.2095
     68 H           5.4277   -2.3051    0.0000 H       1  UNL1        0.0654
     69 H          10.3690    3.1523    0.0000 H       1  UNL1        0.0654
     70 H          11.7626    0.7169    0.0000 H       1  UNL1        0.0654
     71 H           8.9630    2.3477    0.0000 H       1  UNL1        0.0623
     72 H          10.3565   -0.0877    0.0000 H       1  UNL1        0.0623
     73 H           5.4470   -0.6394    0.0000 H       1  UNL1        0.0627
@<TRIPOS>BOND
     1     1    20    1
     2     1    23    1
     3     2    22    1
     4     2    24    1
     5    23     3    1
     6     3    28    1
     7    24     4    1
     8     4    29    1
     9    15     5    1
    10     5    56    1
    11    16     6    1
    12     6    57    1
    13    17     7    1
    14     7    58    1
    15    18     8    1
    16     8    59    1
    17    19     9    1
    18     9    60    1
    19    21    10    1
    20    10    61    1
    21    11    25    1
    22    11    66    1
    23    12    26    1
    24    12    67    1
    25    13    27    1
    26    13    32    1
    27    14    35    2
    28    15    16    1
    29    15    19    1
    30    15    42    1
    31    16    20    1
    32    16    43    1
    33    17    18    1
    34    17    21    1
    35    17    44    1
    36    18    22    1
    37    18    45    1
    38    19    23    1
    39    19    46    1
    40    20    25    1
    41    20    47    1
    42    21    24    1
    43    21    48    1
    44    22    26    1
    45    22    49    1
    46    23    50    1
    47    24    51    1
    48    25    52    1
    49    25    53    1
    50    26    54    1
    51    26    55    1
    52    27    30    1
    53    27    31    1
    54    27    62    1
    55    28    34   ar
    56    28    36   ar
    57    29    37   ar
    58    29    38   ar
    59    30    35    1
    60    30    63    1
    61    30    64    1
    62    31    39   ar
    63    31    40   ar
    64    32    33   ar
    65    32    34   ar
    66    33    35    1
    67    33    41   ar
    68    34    65    1
    69    36    41   ar
    70    36    68    1
    71    37    39   ar
    72    37    69    1
    73    38    40   ar
    74    38    70    1
    75    39    71    1
    76    40    72    1
    77    41    73    1
