@<TRIPOS>MOLECULE
IMPHY004138
 51 54 0 0 0
SMALL
GASTEIGER

@<TRIPOS>ATOM
      1 O           5.1350   -2.7819    0.0000 O.3     1  UNL1       -0.3313
      2 O           6.8671   -2.7819    0.0000 O.3     1  UNL1       -0.4606
      3 O           5.1350   -5.7819    0.0000 O.3     1  UNL1       -0.3864
      4 O           3.4030   -4.7819    0.0000 O.3     1  UNL1       -0.3865
      5 O           6.8671   -4.7819    0.0000 O.3     1  UNL1       -0.3829
      6 O           2.5369   -3.2819    0.0000 O.3     1  UNL1       -0.3924
      7 O           8.6230    0.2806    0.0000 O.2     1  UNL1       -0.4618
      8 O           5.1208    0.2973    0.0000 O.3     1  UNL1       -0.5058
      9 O           6.0308    1.7906    0.0000 O.2     1  UNL1       -0.2863
     10 O           7.7782    5.7839    0.0000 O.3     1  UNL1       -0.5068
     11 C           5.1350   -4.7819    0.0000 C.3     1  UNL1        0.1152
     12 C           4.2690   -4.2819    0.0000 C.3     1  UNL1        0.1120
     13 C           6.0010   -4.2819    0.0000 C.3     1  UNL1        0.1454
     14 C           4.2690   -3.2819    0.0000 C.3     1  UNL1        0.1140
     15 C           6.0010   -3.2819    0.0000 C.3     1  UNL1        0.2308
     16 C           3.4030   -2.7819    0.0000 C.3     1  UNL1        0.0731
     17 C           6.8671   -1.7819    0.0000 C.ar    1  UNL1        0.1310
     18 C           7.7671   -1.2576    0.0000 C.ar    1  UNL1        0.0234
     19 C           5.9670   -1.2576    0.0000 C.ar    1  UNL1        0.0226
     20 C           7.7551   -0.2160    0.0000 C.ar    1  UNL1        0.1454
     21 C           6.8910    0.2873    0.0000 C.ar    1  UNL1        0.1060
     22 C           5.9790   -0.2160    0.0000 C.ar    1  UNL1        0.1347
     23 C           6.8948    1.2873    0.0000 C.ar    1  UNL1        0.2037
     24 C           7.7628    1.7840    0.0000 C.ar    1  UNL1        0.0644
     25 C           8.6269    1.2806    0.0000 C.ar    1  UNL1        0.1038
     26 C           7.7666    2.7840    0.0000 C.ar    1  UNL1       -0.0110
     27 C           8.6346    3.2806    0.0000 C.ar    1  UNL1       -0.0504
     28 C           6.9026    3.2873    0.0000 C.ar    1  UNL1       -0.0504
     29 C           8.6384    4.2806    0.0000 C.ar    1  UNL1       -0.0196
     30 C           6.9064    4.2873    0.0000 C.ar    1  UNL1       -0.0196
     31 C           7.7744    4.7840    0.0000 C.ar    1  UNL1        0.1169
     32 H           5.6720   -5.0919    0.0000 H       1  UNL1        0.0648
     33 H           4.2690   -4.9019    0.0000 H       1  UNL1        0.0647
     34 H           6.5380   -3.9719    0.0000 H       1  UNL1        0.0683
     35 H           4.2690   -2.6619    0.0000 H       1  UNL1        0.0647
     36 H           6.0010   -2.6619    0.0000 H       1  UNL1        0.1084
     37 H           3.8015   -2.3069    0.0000 H       1  UNL1        0.0584
     38 H           3.0044   -2.3069    0.0000 H       1  UNL1        0.0584
     39 H           4.5981   -6.0919    0.0000 H       1  UNL1        0.2100
     40 H           3.4030   -5.4019    0.0000 H       1  UNL1        0.2100
     41 H           6.8671   -5.4019    0.0000 H       1  UNL1        0.2102
     42 H           2.0000   -2.9719    0.0000 H       1  UNL1        0.2095
     43 H           8.3064   -1.5634    0.0000 H       1  UNL1        0.0691
     44 H           5.4277   -1.5634    0.0000 H       1  UNL1        0.0691
     45 H           9.1650    1.5886    0.0000 H       1  UNL1        0.1037
     46 H           4.5792   -0.0044    0.0000 H       1  UNL1        0.2922
     47 H           9.1703    2.9686    0.0000 H       1  UNL1        0.0625
     48 H           6.3644    2.9794    0.0000 H       1  UNL1        0.0625
     49 H           9.1766    4.5885    0.0000 H       1  UNL1        0.0654
     50 H           6.3707    4.5994    0.0000 H       1  UNL1        0.0654
     51 H           8.3163    6.0919    0.0000 H       1  UNL1        0.2921
@<TRIPOS>BOND
     1     1    14    1
     2     1    15    1
     3    15     2    1
     4     2    17    1
     5    11     3    1
     6     3    39    1
     7    12     4    1
     8     4    40    1
     9    13     5    1
    10     5    41    1
    11     6    16    1
    12     6    42    1
    13     7    20   ar
    14     7    25   ar
    15     8    22    1
    16     8    46    1
    17     9    23    2
    18    10    31    1
    19    10    51    1
    20    11    12    1
    21    11    13    1
    22    11    32    1
    23    12    14    1
    24    12    33    1
    25    13    15    1
    26    13    34    1
    27    14    16    1
    28    14    35    1
    29    15    36    1
    30    16    37    1
    31    16    38    1
    32    17    18   ar
    33    17    19   ar
    34    18    20   ar
    35    18    43    1
    36    19    22   ar
    37    19    44    1
    38    20    21   ar
    39    21    22   ar
    40    21    23   ar
    41    23    24   ar
    42    24    25   ar
    43    24    26    1
    44    25    45    1
    45    26    27   ar
    46    26    28   ar
    47    27    29   ar
    48    27    47    1
    49    28    30   ar
    50    28    48    1
    51    29    31   ar
    52    29    49    1
    53    30    31   ar
    54    30    50    1
