@<TRIPOS>MOLECULE
IMPHY006890
 38 38 0 0 0
SMALL
GASTEIGER

@<TRIPOS>ATOM
      1 O           7.9575   -1.3157    0.0000 O.2     1  UNL1       -0.2971
      2 O           2.7431   -1.6759    0.0000 O.3     1  UNL1       -0.4679
      3 O           3.9021   -2.9630    0.0000 O.2     1  UNL1       -0.2509
      4 C           5.3884   -1.6248    0.0000 C.3     1  UNL1       -0.0211
      5 C           6.1974   -1.0370    0.0000 C.3     1  UNL1        0.0208
      6 C           5.6974   -2.5758    0.0000 C.3     1  UNL1       -0.0424
      7 C           6.1974   -0.0370    0.0000 C.3     1  UNL1       -0.0432
      8 C           6.6974   -2.5758    0.0000 C.3     1  UNL1        0.0064
      9 C           7.0064   -1.6248    0.0000 C.2     1  UNL1        0.1367
     10 C           4.4374   -1.3157    0.0000 C.3     1  UNL1        0.0484
     11 C           7.0634    0.4630    0.0000 C.3     1  UNL1       -0.0524
     12 C           7.0634    1.4630    0.0000 C.3     1  UNL1       -0.0533
     13 C           3.6942   -1.9849    0.0000 C.2     1  UNL1        0.3071
     14 C           7.9295    1.9630    0.0000 C.3     1  UNL1       -0.0559
     15 C           7.9295    2.9630    0.0000 C.3     1  UNL1       -0.0653
     16 C           2.0000   -2.3450    0.0000 C.3     1  UNL1        0.0817
     17 H           4.9500   -2.0632    0.0000 H       1  UNL1        0.0313
     18 H           6.7498   -0.7555    0.0000 H       1  UNL1        0.0380
     19 H           5.0910   -2.7047    0.0000 H       1  UNL1        0.0272
     20 H           5.7622   -3.1924    0.0000 H       1  UNL1        0.0272
     21 H           5.9854    0.5456    0.0000 H       1  UNL1        0.0272
     22 H           5.5868   -0.1446    0.0000 H       1  UNL1        0.0272
     23 H           6.6326   -3.1924    0.0000 H       1  UNL1        0.0342
     24 H           7.3039   -2.7047    0.0000 H       1  UNL1        0.0342
     25 H           4.7284   -0.7683    0.0000 H       1  UNL1        0.0380
     26 H           3.9488   -0.9340    0.0000 H       1  UNL1        0.0380
     27 H           7.2755   -0.1196    0.0000 H       1  UNL1        0.0265
     28 H           7.6740    0.5707    0.0000 H       1  UNL1        0.0265
     29 H           6.8514    2.0456    0.0000 H       1  UNL1        0.0265
     30 H           6.4529    1.3554    0.0000 H       1  UNL1        0.0265
     31 H           8.1415    1.3804    0.0000 H       1  UNL1        0.0263
     32 H           8.5401    2.0707    0.0000 H       1  UNL1        0.0263
     33 H           8.5495    2.9630    0.0000 H       1  UNL1        0.0230
     34 H           7.9295    3.5830    0.0000 H       1  UNL1        0.0230
     35 H           7.3095    2.9630    0.0000 H       1  UNL1        0.0230
     36 H           1.5851   -1.8842    0.0000 H       1  UNL1        0.0661
     37 H           1.5392   -2.7598    0.0000 H       1  UNL1        0.0661
     38 H           2.4149   -2.8057    0.0000 H       1  UNL1        0.0661
@<TRIPOS>BOND
     1     1     9    2
     2     2    13    1
     3     2    16    1
     4     3    13    2
     5     4     5    1
     6     4     6    1
     7     4    10    1
     8     4    17    1
     9     5     7    1
    10     5     9    1
    11     5    18    1
    12     6     8    1
    13     6    19    1
    14     6    20    1
    15     7    11    1
    16     7    21    1
    17     7    22    1
    18     8     9    1
    19     8    23    1
    20     8    24    1
    21    10    13    1
    22    10    25    1
    23    10    26    1
    24    11    12    1
    25    11    27    1
    26    11    28    1
    27    12    14    1
    28    12    29    1
    29    12    30    1
    30    14    15    1
    31    14    31    1
    32    14    32    1
    33    15    33    1
    34    15    34    1
    35    15    35    1
    36    16    36    1
    37    16    37    1
    38    16    38    1
