@<TRIPOS>MOLECULE
IMPHY009595
 15 13 0 0 0
SMALL
GASTEIGER

@<TRIPOS>ATOM
      1 MG          5.5006   -0.7886    0.0000 Mg      1  UNL1        0.0000
      2 O           2.3100   -0.2886    0.0000 O.3     2  UNL2        0.0000
      3 O           3.1204    1.3942    0.0000 O.3     2  UNL2        0.0000
      4 O           4.7188   -1.4121    0.0000 O.co2   2  UNL2       -0.5000
      5 O           5.5006    0.2114    0.0000 O.co2   2  UNL2       -0.5000
      6 O           3.1204   -1.9714    0.0000 O.co2   2  UNL2       -0.5000
      7 O           4.9413    1.8098    0.0000 O.co2   2  UNL2       -0.5000
      8 C           3.3100   -0.2886    0.0000 C.3     2  UNL2        0.0000
      9 C           3.7439    0.6124    0.0000 C.3     2  UNL2        0.0000
     10 C           3.7439   -1.1895    0.0000 C.2     2  UNL2        0.0000
     11 C           4.7188    0.8349    0.0000 C.2     2  UNL2        0.0000
     12 H           2.9801   -0.8135    0.0000 H       2  UNL2        0.0000
     13 H           3.9487    1.1976    0.0000 H       2  UNL2        0.0000
     14 H           2.0000   -0.8255    0.0000 H       2  UNL2        0.0000
     15 H           3.3469    1.9714    0.0000 H       2  UNL2        0.0000
@<TRIPOS>UNITY_ATOM_ATTR
1 1
charge 2
4 1
charge -1
5 1
charge -1
@<TRIPOS>BOND
     1     2     8    1
     2     2    14    1
     3     3     9    1
     4     3    15    1
     5     4    10   ar
     6     5    11   ar
     7     6    10   ar
     8     7    11   ar
     9     8     9    1
    10     8    10    1
    11     8    12    1
    12     9    11    1
    13     9    13    1
