@<TRIPOS>MOLECULE
IMPHY003015
 15 15 0 0 0
SMALL
GASTEIGER

@<TRIPOS>ATOM
      1 O           2.8660   -1.5000    0.0000 O.2     1  UNL1       -0.2907
      2 N           4.5981   -0.5000    0.0000 N.ar    1  UNL1       -0.2491
      3 N           4.5981    1.5000    0.0000 N.ar    1  UNL1       -0.2595
      4 C           3.7320    0.0000    0.0000 C.ar    1  UNL1        0.1238
      5 C           2.8660   -0.5000    0.0000 C.2     1  UNL1        0.1796
      6 C           3.7320    1.0000    0.0000 C.ar    1  UNL1        0.0563
      7 C           2.0000    0.0000    0.0000 C.3     1  UNL1        0.0002
      8 C           5.4641    0.0000    0.0000 C.ar    1  UNL1        0.0465
      9 C           5.4641    1.0000    0.0000 C.ar    1  UNL1        0.0457
     10 H           3.1951    1.3100    0.0000 H       1  UNL1        0.0852
     11 H           2.3100    0.5369    0.0000 H       1  UNL1        0.0310
     12 H           1.4631    0.3100    0.0000 H       1  UNL1        0.0310
     13 H           1.6900   -0.5369    0.0000 H       1  UNL1        0.0310
     14 H           6.0010   -0.3100    0.0000 H       1  UNL1        0.0845
     15 H           6.0010    1.3100    0.0000 H       1  UNL1        0.0845
@<TRIPOS>BOND
     1     1     5    2
     2     2     4   ar
     3     2     8   ar
     4     3     6   ar
     5     3     9   ar
     6     4     5    1
     7     4     6   ar
     8     5     7    1
     9     6    10    1
    10     7    11    1
    11     7    12    1
    12     7    13    1
    13     8     9   ar
    14     8    14    1
    15     9    15    1
