@<TRIPOS>MOLECULE
IMPHY005259
 24 25 0 0 0
SMALL
GASTEIGER

@<TRIPOS>ATOM
      1 O           6.2619   -0.3649    0.0000 O.2     1  UNL1       -0.2748
      2 O           2.8660   -2.3649    0.0000 O.3     1  UNL1       -0.5049
      3 O           6.2781    2.5471    0.0000 O.3     1  UNL1       -0.4806
      4 O           6.6353    0.8522    0.0000 O.2     1  UNL1       -0.2510
      5 N           4.6783   -1.1697    0.0000 N.am    1  UNL1       -0.2818
      6 C           4.6783    0.4398    0.0000 C.3     1  UNL1        0.0727
      7 C           3.7320    0.1351    0.0000 C.ar    1  UNL1       -0.0102
      8 C           3.7320   -0.8649    0.0000 C.ar    1  UNL1        0.0793
      9 C           4.9889    1.3903    0.0000 C.3     1  UNL1        0.0599
     10 C           5.2619   -0.3649    0.0000 C.2     1  UNL1        0.2253
     11 C           2.8660    0.6351    0.0000 C.ar    1  UNL1       -0.0558
     12 C           2.8660   -1.3649    0.0000 C.ar    1  UNL1        0.1382
     13 C           2.0000    0.1351    0.0000 C.ar    1  UNL1       -0.0579
     14 C           2.0000   -0.8649    0.0000 C.ar    1  UNL1       -0.0183
     15 C           5.9674    1.5966    0.0000 C.2     1  UNL1        0.3057
     16 H           5.2908    0.5360    0.0000 H       1  UNL1        0.0449
     17 H           4.9684    2.0100    0.0000 H       1  UNL1        0.0388
     18 H           4.3751    1.4777    0.0000 H       1  UNL1        0.0388
     19 H           4.8709   -1.7590    0.0000 H       1  UNL1        0.1549
     20 H           2.8660    1.2551    0.0000 H       1  UNL1        0.0621
     21 H           1.4631    0.4451    0.0000 H       1  UNL1        0.0619
     22 H           1.4631   -1.1749    0.0000 H       1  UNL1        0.0655
     23 H           2.3291   -2.6749    0.0000 H       1  UNL1        0.2922
     24 H           6.8848    2.6749    0.0000 H       1  UNL1        0.2951
@<TRIPOS>BOND
     1     1    10    2
     2     2    12    1
     3     2    23    1
     4     3    15    1
     5     3    24    1
     6     4    15    2
     7     5     8    1
     8     5    10   am
     9     5    19    1
    10     6     7    1
    11     6     9    1
    12     6    10    1
    13     6    16    1
    14     7     8   ar
    15     7    11   ar
    16     8    12   ar
    17     9    15    1
    18     9    17    1
    19     9    18    1
    20    11    13   ar
    21    11    20    1
    22    12    14   ar
    23    13    14   ar
    24    13    21    1
    25    14    22    1
