@<TRIPOS>MOLECULE
IMPHY000186
 40 45 0 0 0
SMALL
GASTEIGER

@<TRIPOS>ATOM
      1 O           7.2626    1.1382    0.0000 O.3     1  UNL1       -0.3589
      2 O           3.3977    3.1632    0.0000 O.3     1  UNL1       -0.4604
      3 O           3.4826   -2.4309    0.0000 O.3     1  UNL1       -0.4481
      4 O           4.7055    4.3653    0.0000 O.2     1  UNL1       -0.2453
      5 O           2.0000   -1.3870    0.0000 O.2     1  UNL1       -0.2449
      6 O           6.6798   -3.6437    0.0000 O.2     1  UNL1       -0.4706
      7 C           6.3065    0.8435    0.0000 C.3     1  UNL1        0.1147
      8 C           6.5290    1.8185    0.0000 C.3     1  UNL1        0.1087
      9 C           5.4055    0.4096    0.0000 C.ar    1  UNL1       -0.0089
     10 C           4.2820    1.8185    0.0000 C.3     1  UNL1        0.0503
     11 C           4.5046    0.8435    0.0000 C.ar    1  UNL1       -0.0297
     12 C           5.9055    2.6003    0.0000 C.2     1  UNL1       -0.0422
     13 C           4.9055    2.6003    0.0000 C.2     1  UNL1        0.0458
     14 C           5.4994   -0.6278    0.0000 C.ar    1  UNL1       -0.0367
     15 C           4.6433   -1.2211    0.0000 C.ar    1  UNL1        0.0145
     16 C           3.3522    2.1702    0.0000 C.3     1  UNL1        0.1038
     17 C           3.6350    0.2701    0.0000 C.ar    1  UNL1       -0.0431
     18 C           3.7048   -0.7692    0.0000 C.ar    1  UNL1        0.0666
     19 C           4.5016   -2.2469    0.0000 C.3     1  UNL1        0.1573
     20 C           4.3557    3.4285    0.0000 C.2     1  UNL1        0.3357
     21 C           6.4053   -1.0512    0.0000 C.3     1  UNL1       -0.0390
     22 C           2.9912   -1.5195    0.0000 C.2     1  UNL1        0.3405
     23 C           5.2232   -2.9392    0.0000 C.ar    1  UNL1        0.0349
     24 C           5.0873   -3.9299    0.0000 C.ar    1  UNL1       -0.0169
     25 C           6.2075   -2.7623    0.0000 C.ar    1  UNL1        0.0987
     26 C           5.9875   -4.3653    0.0000 C.ar    1  UNL1        0.0921
     27 H           6.5329    0.2664    0.0000 H       1  UNL1        0.0676
     28 H           6.9834    2.2402    0.0000 H       1  UNL1        0.0670
     29 H           3.6412    1.2600    0.0000 H       1  UNL1        0.0433
     30 H           6.1745    3.1589    0.0000 H       1  UNL1        0.0604
     31 H           2.7393    2.2635    0.0000 H       1  UNL1        0.0707
     32 H           3.1951    1.5704    0.0000 H       1  UNL1        0.0707
     33 H           3.0795    0.5455    0.0000 H       1  UNL1        0.0629
     34 H           4.3225   -2.8404    0.0000 H       1  UNL1        0.0839
     35 H           6.1428   -1.6129    0.0000 H       1  UNL1        0.0278
     36 H           6.9670   -1.3137    0.0000 H       1  UNL1        0.0278
     37 H           6.6678   -0.4895    0.0000 H       1  UNL1        0.0278
     38 H           4.5408   -4.2227    0.0000 H       1  UNL1        0.0653
     39 H           6.4774   -2.2042    0.0000 H       1  UNL1        0.1033
     40 H           6.0971   -4.9756    0.0000 H       1  UNL1        0.1029
@<TRIPOS>BOND
     1     7     1    1
     2     8     1    1
     3     2    16    1
     4     2    20    1
     5     3    19    1
     6     3    22    1
     7     4    20    2
     8     5    22    2
     9     6    25   ar
    10     6    26   ar
    11     7     8    1
    12     7     9    1
    13     7    27    1
    14     8    12    1
    15     8    28    1
    16     9    11   ar
    17     9    14   ar
    18    10    11    1
    19    10    13    1
    20    10    16    1
    21    10    29    1
    22    11    17   ar
    23    12    13    2
    24    12    30    1
    25    13    20    1
    26    14    15   ar
    27    14    21    1
    28    15    18   ar
    29    15    19    1
    30    16    31    1
    31    16    32    1
    32    17    18   ar
    33    17    33    1
    34    18    22    1
    35    19    23    1
    36    19    34    1
    37    21    35    1
    38    21    36    1
    39    21    37    1
    40    23    24   ar
    41    23    25   ar
    42    24    26   ar
    43    24    38    1
    44    25    39    1
    45    26    40    1
