@<TRIPOS>MOLECULE
IMPHY009041
 60 64 0 0 0
SMALL
GASTEIGER

@<TRIPOS>ATOM
      1 O           2.8304    1.0974    0.0000 O.3     1  UNL1       -0.4606
      2 O           7.2580    0.7713    0.0000 O.3     1  UNL1       -0.3478
      3 O           4.5797    3.0760    0.0000 O.3     1  UNL1       -0.3844
      4 O           7.2580    2.3808    0.0000 O.3     1  UNL1       -0.3453
      5 O           5.9457    3.4421    0.0000 O.3     1  UNL1       -0.3833
      6 O           7.2700   -0.4695    0.0000 O.2     1  UNL1       -0.2882
      7 O           2.0000    2.6058    0.0000 O.2     1  UNL1       -0.2507
      8 O           7.3022   -2.5609    0.0000 O.2     1  UNL1       -0.4919
      9 C           4.5797    1.0760    0.0000 C.3     1  UNL1        0.0431
     10 C           5.4457    0.5760    0.0000 C.3     1  UNL1        0.0122
     11 C           4.5797    2.0760    0.0000 C.3     1  UNL1        0.1159
     12 C           5.4618   -0.4655    0.0000 C.3     1  UNL1        0.0432
     13 C           3.6697    0.5692    0.0000 C.3     1  UNL1        0.1118
     14 C           6.3118    1.0760    0.0000 C.3     1  UNL1        0.0947
     15 C           4.5638   -0.9932    0.0000 C.3     1  UNL1       -0.0186
     16 C           5.4457    2.5760    0.0000 C.3     1  UNL1        0.1214
     17 C           6.3118    2.0760    0.0000 C.3     1  UNL1        0.1188
     18 C           3.6617   -0.4724    0.0000 C.3     1  UNL1       -0.0108
     19 C           4.5797    0.0760    0.0000 C.3     1  UNL1       -0.0531
     20 C           3.7215    2.5730    0.0000 C.3     1  UNL1        0.0771
     21 C           4.5554   -2.0782    0.0000 C.3     1  UNL1       -0.0181
     22 C           6.3239    0.0412    0.0000 C.3     1  UNL1       -0.0517
     23 C           6.4137   -0.9861    0.0000 C.2     1  UNL1        0.2034
     24 C           5.2721    3.5608    0.0000 C.3     1  UNL1       -0.0308
     25 C           2.8560    2.0888    0.0000 C.2     1  UNL1        0.3102
     26 C           7.8416    1.5760    0.0000 C.3     1  UNL1        0.1492
     27 C           5.4950   -2.6207    0.0000 C.2     1  UNL1       -0.0356
     28 C           6.4305   -2.0710    0.0000 C.2     1  UNL1        0.1592
     29 C           3.6874   -2.5748    0.0000 C.3     1  UNL1       -0.0585
     30 C           7.3138   -3.5608    0.0000 C.3     1  UNL1        0.0789
     31 H           6.1851    0.1567    0.0000 H       1  UNL1        0.0344
     32 H           2.9240    0.1612    0.0000 H       1  UNL1        0.0740
     33 H           6.4017    0.2308    0.0000 H       1  UNL1        0.0627
     34 H           3.8260   -1.4154    0.0000 H       1  UNL1        0.0317
     35 H           6.4017    2.9213    0.0000 H       1  UNL1        0.0653
     36 H           3.0517   -0.3616    0.0000 H       1  UNL1        0.0304
     37 H           3.4481   -1.0545    0.0000 H       1  UNL1        0.0304
     38 H           3.9597    0.0760    0.0000 H       1  UNL1        0.0237
     39 H           4.5797   -0.5440    0.0000 H       1  UNL1        0.0237
     40 H           5.1997    0.0760    0.0000 H       1  UNL1        0.0237
     41 H           4.1226    3.0458    0.0000 H       1  UNL1        0.0407
     42 H           3.3275    3.0517    0.0000 H       1  UNL1        0.0407
     43 H           4.0203   -1.7651    0.0000 H       1  UNL1        0.0344
     44 H           6.6381   -0.4933    0.0000 H       1  UNL1        0.0239
     45 H           6.8585    0.3553    0.0000 H       1  UNL1        0.0239
     46 H           6.0098    0.5757    0.0000 H       1  UNL1        0.0239
     47 H           5.8827    3.6685    0.0000 H       1  UNL1        0.0259
     48 H           5.1644    4.1714    0.0000 H       1  UNL1        0.0259
     49 H           4.6615    3.4532    0.0000 H       1  UNL1        0.0259
     50 H           4.0428    3.3860    0.0000 H       1  UNL1        0.2103
     51 H           8.3025    1.1613    0.0000 H       1  UNL1        0.0871
     52 H           8.3025    1.9908    0.0000 H       1  UNL1        0.0871
     53 H           5.4974   -3.2407    0.0000 H       1  UNL1        0.0612
     54 H           6.5657    3.4421    0.0000 H       1  UNL1        0.2104
     55 H           3.3795   -2.0367    0.0000 H       1  UNL1        0.0235
     56 H           3.1493   -2.8828    0.0000 H       1  UNL1        0.0235
     57 H           3.9954   -3.1130    0.0000 H       1  UNL1        0.0235
     58 H           6.6938   -3.5680    0.0000 H       1  UNL1        0.0660
     59 H           7.3209   -4.1808    0.0000 H       1  UNL1        0.0660
     60 H           7.9337   -3.5537    0.0000 H       1  UNL1        0.0660
@<TRIPOS>BOND
     1     1    13    1
     2     1    25    1
     3     2    14    1
     4     2    26    1
     5    11     3    1
     6     3    50    1
     7     4    17    1
     8     4    26    1
     9    16     5    1
    10     5    54    1
    11     6    23    2
    12     7    25    2
    13     8    28    1
    14     8    30    1
    15     9    10    1
    16     9    11    1
    17     9    13    1
    18     9    19    1
    19    10    12    1
    20    10    14    1
    21    10    31    1
    22    11    16    1
    23    11    20    1
    24    12    15    1
    25    12    22    1
    26    12    23    1
    27    13    18    1
    28    13    32    1
    29    14    17    1
    30    14    33    1
    31    15    18    1
    32    15    21    1
    33    15    34    1
    34    16    17    1
    35    16    24    1
    36    17    35    1
    37    18    36    1
    38    18    37    1
    39    19    38    1
    40    19    39    1
    41    19    40    1
    42    20    25    1
    43    20    41    1
    44    20    42    1
    45    21    27    1
    46    21    29    1
    47    21    43    1
    48    22    44    1
    49    22    45    1
    50    22    46    1
    51    23    28    1
    52    24    47    1
    53    24    48    1
    54    24    49    1
    55    26    51    1
    56    26    52    1
    57    27    28    2
    58    27    53    1
    59    29    55    1
    60    29    56    1
    61    29    57    1
    62    30    58    1
    63    30    59    1
    64    30    60    1
