@<TRIPOS>MOLECULE
IMPHY003726
 34 35 0 0 0
SMALL
GASTEIGER

@<TRIPOS>ATOM
      1 O           4.6260   -1.2177    0.0000 O.3     1  UNL1       -0.3620
      2 C           2.8660    0.8170    0.0000 C.3     1  UNL1       -0.0075
      3 C           3.7320   -0.6830    0.0000 C.3     1  UNL1        0.1067
      4 C           3.7320    0.3170    0.0000 C.2     1  UNL1       -0.0325
      5 C           2.0000    0.3170    0.0000 C.3     1  UNL1       -0.0257
      6 C           5.5321   -0.7038    0.0000 C.3     1  UNL1        0.0608
      7 C           4.6260    0.8516    0.0000 C.2     1  UNL1       -0.0788
      8 C           2.8660   -1.1830    0.0000 C.2     1  UNL1       -0.0526
      9 C           5.5321    0.3378    0.0000 C.3     1  UNL1       -0.0082
     10 C           2.3660    1.6830    0.0000 C.3     1  UNL1       -0.0557
     11 C           3.3660    1.6830    0.0000 C.3     1  UNL1       -0.0557
     12 C           2.0000   -0.6830    0.0000 C.2     1  UNL1       -0.0841
     13 C           3.7320   -1.6830    0.0000 C.3     1  UNL1       -0.0282
     14 C           6.3961   -1.2072    0.0000 C.3     1  UNL1       -0.0383
     15 H           1.7880    0.8996    0.0000 H       1  UNL1        0.0316
     16 H           1.3894    0.2093    0.0000 H       1  UNL1        0.0316
     17 H           5.5285   -1.3238    0.0000 H       1  UNL1        0.0597
     18 H           4.6188    1.4716    0.0000 H       1  UNL1        0.0574
     19 H           2.8660   -1.8030    0.0000 H       1  UNL1        0.0600
     20 H           6.1429    0.2317    0.0000 H       1  UNL1        0.0332
     21 H           5.7411    0.9215    0.0000 H       1  UNL1        0.0332
     22 H           2.9030    1.9930    0.0000 H       1  UNL1        0.0238
     23 H           2.0560    2.2200    0.0000 H       1  UNL1        0.0238
     24 H           1.8291    1.3730    0.0000 H       1  UNL1        0.0238
     25 H           3.9030    1.3730    0.0000 H       1  UNL1        0.0238
     26 H           3.6760    2.2200    0.0000 H       1  UNL1        0.0238
     27 H           2.8291    1.9930    0.0000 H       1  UNL1        0.0238
     28 H           1.4631   -0.9930    0.0000 H       1  UNL1        0.0570
     29 H           3.1120   -1.6830    0.0000 H       1  UNL1        0.0264
     30 H           3.7320   -2.3030    0.0000 H       1  UNL1        0.0264
     31 H           4.3520   -1.6830    0.0000 H       1  UNL1        0.0264
     32 H           6.0841   -1.7429    0.0000 H       1  UNL1        0.0255
     33 H           6.9319   -1.5192    0.0000 H       1  UNL1        0.0255
     34 H           6.7082   -0.6714    0.0000 H       1  UNL1        0.0255
@<TRIPOS>BOND
     1     1     3    1
     2     1     6    1
     3     2     4    1
     4     2     5    1
     5     2    10    1
     6     2    11    1
     7     3     4    1
     8     3     8    1
     9     3    13    1
    10     4     7    2
    11     5    12    1
    12     5    15    1
    13     5    16    1
    14     6     9    1
    15     6    14    1
    16     6    17    1
    17     7     9    1
    18     7    18    1
    19     8    12    2
    20     8    19    1
    21     9    20    1
    22     9    21    1
    23    10    22    1
    24    10    23    1
    25    10    24    1
    26    11    25    1
    27    11    26    1
    28    11    27    1
    29    12    28    1
    30    13    29    1
    31    13    30    1
    32    13    31    1
    33    14    32    1
    34    14    33    1
    35    14    34    1
