@<TRIPOS>MOLECULE
IMPHY005684
 78 87 0 0 0
SMALL
GASTEIGER

@<TRIPOS>ATOM
      1 O           3.6938   -2.8248    0.0000 O.3     1  UNL1       -0.4811
      2 O           6.6104    2.8248    0.0000 O.3     1  UNL1       -0.4811
      3 O           3.4624   -5.2798    0.0000 O.3     1  UNL1       -0.3841
      4 O           6.8418    5.2798    0.0000 O.3     1  UNL1       -0.3841
      5 O           3.4624   -0.4755    0.0000 O.3     1  UNL1       -0.5029
      6 O           6.8418    0.4755    0.0000 O.3     1  UNL1       -0.5029
      7 N           7.6231   -3.8288    0.0000 N.3     1  UNL1       -0.3015
      8 N           2.6812    3.8288    0.0000 N.3     1  UNL1       -0.3015
      9 C           5.1521   -3.3532    0.0000 C.3     1  UNL1        0.0480
     10 C           5.1521    3.3532    0.0000 C.3     1  UNL1        0.0480
     11 C           5.9758   -3.8288    0.0000 C.3     1  UNL1        0.0064
     12 C           4.3285    3.8288    0.0000 C.3     1  UNL1        0.0064
     13 C           6.7994   -3.3532    0.0000 C.3     1  UNL1        0.0213
     14 C           3.5048    3.3532    0.0000 C.3     1  UNL1        0.0213
     15 C           4.3285   -3.8288    0.0000 C.3     1  UNL1        0.1399
     16 C           5.9758    3.8288    0.0000 C.3     1  UNL1        0.1399
     17 C           5.1521    2.4021    0.0000 C.ar    1  UNL1        0.0116
     18 C           5.1521   -2.4021    0.0000 C.ar    1  UNL1        0.0116
     19 C           4.6026    2.6558    0.0000 C.3     1  UNL1       -0.0263
     20 C           5.7016   -2.6558    0.0000 C.3     1  UNL1       -0.0263
     21 C           3.5048    2.4021    0.0000 C.3     1  UNL1       -0.0110
     22 C           6.7994   -2.4021    0.0000 C.3     1  UNL1       -0.0110
     23 C           5.9758   -1.9266    0.0000 C.ar    1  UNL1       -0.0377
     24 C           4.3285    1.9266    0.0000 C.ar    1  UNL1       -0.0377
     25 C           3.2500    2.6558    0.0000 C.3     1  UNL1       -0.0001
     26 C           7.0543   -2.6558    0.0000 C.3     1  UNL1       -0.0001
     27 C           4.3285   -4.7798    0.0000 C.3     1  UNL1        0.1110
     28 C           5.9758    4.7798    0.0000 C.3     1  UNL1        0.1110
     29 C           5.9758    1.9266    0.0000 C.ar    1  UNL1        0.1670
     30 C           4.3285   -1.9266    0.0000 C.ar    1  UNL1        0.1670
     31 C           4.3285    4.7798    0.0000 C.2     1  UNL1       -0.0799
     32 C           5.9758   -4.7798    0.0000 C.2     1  UNL1       -0.0799
     33 C           5.1521    5.2554    0.0000 C.2     1  UNL1       -0.0559
     34 C           5.1521   -5.2554    0.0000 C.2     1  UNL1       -0.0559
     35 C           5.1521    0.5000    0.0000 C.ar    1  UNL1        0.0311
     36 C           5.1521   -0.5000    0.0000 C.ar    1  UNL1        0.0311
     37 C           5.9758   -0.9755    0.0000 C.ar    1  UNL1       -0.0467
     38 C           4.3285    0.9755    0.0000 C.ar    1  UNL1       -0.0467
     39 C           4.3285   -0.9755    0.0000 C.ar    1  UNL1        0.1668
     40 C           5.9758    0.9755    0.0000 C.ar    1  UNL1        0.1668
     41 C           2.0000    4.5609    0.0000 C.3     1  UNL1       -0.0124
     42 C           8.3043   -4.5609    0.0000 C.3     1  UNL1       -0.0124
     43 H           6.5127   -4.1388    0.0000 H       1  UNL1        0.0368
     44 H           4.8654    4.1388    0.0000 H       1  UNL1        0.0368
     45 H           7.3364   -3.0432    0.0000 H       1  UNL1        0.0472
     46 H           4.0418    3.0432    0.0000 H       1  UNL1        0.0472
     47 H           3.7329   -4.0012    0.0000 H       1  UNL1        0.0772
     48 H           6.5713    4.0012    0.0000 H       1  UNL1        0.0772
     49 H           4.4658    2.0510    0.0000 H       1  UNL1        0.0287
     50 H           5.1623    2.3890    0.0000 H       1  UNL1        0.0287
     51 H           5.8384   -2.0510    0.0000 H       1  UNL1        0.0287
     52 H           5.1420   -2.3890    0.0000 H       1  UNL1        0.0287
     53 H           7.4100   -2.5098    0.0000 H       1  UNL1        0.0329
     54 H           7.0115   -1.8195    0.0000 H       1  UNL1        0.0329
     55 H           2.8942    2.5098    0.0000 H       1  UNL1        0.0329
     56 H           3.2928    1.8195    0.0000 H       1  UNL1        0.0329
     57 H           2.6579    2.4720    0.0000 H       1  UNL1        0.0427
     58 H           3.3429    2.0428    0.0000 H       1  UNL1        0.0427
     59 H           7.6464   -2.4720    0.0000 H       1  UNL1        0.0427
     60 H           6.9613   -2.0428    0.0000 H       1  UNL1        0.0427
     61 H           4.3285   -5.3998    0.0000 H       1  UNL1        0.0675
     62 H           5.9758    5.3998    0.0000 H       1  UNL1        0.0675
     63 H           6.5127   -5.0898    0.0000 H       1  UNL1        0.0573
     64 H           3.7915    5.0898    0.0000 H       1  UNL1        0.0573
     65 H           5.1521   -5.8754    0.0000 H       1  UNL1        0.0596
     66 H           5.1521    5.8754    0.0000 H       1  UNL1        0.0596
     67 H           6.5127   -0.6655    0.0000 H       1  UNL1        0.0628
     68 H           3.7916    0.6655    0.0000 H       1  UNL1        0.0628
     69 H           2.4539    4.9832    0.0000 H       1  UNL1        0.0391
     70 H           1.5777    5.0148    0.0000 H       1  UNL1        0.0391
     71 H           1.5461    4.1386    0.0000 H       1  UNL1        0.0391
     72 H           7.8504   -4.9832    0.0000 H       1  UNL1        0.0391
     73 H           8.7266   -5.0148    0.0000 H       1  UNL1        0.0391
     74 H           8.7582   -4.1386    0.0000 H       1  UNL1        0.0391
     75 H           3.4624   -5.8998    0.0000 H       1  UNL1        0.2104
     76 H           6.8418    5.8998    0.0000 H       1  UNL1        0.2104
     77 H           2.9255   -0.7855    0.0000 H       1  UNL1        0.2923
     78 H           7.3788    0.7855    0.0000 H       1  UNL1        0.2923
@<TRIPOS>BOND
     1     1    15    1
     2     1    30    1
     3     2    16    1
     4     2    29    1
     5     3    27    1
     6     3    75    1
     7     4    28    1
     8     4    76    1
     9     5    39    1
    10     5    77    1
    11     6    40    1
    12     6    78    1
    13     7    13    1
    14     7    26    1
    15     7    42    1
    16     8    14    1
    17     8    25    1
    18     8    41    1
    19     9    11    1
    20     9    15    1
    21     9    18    1
    22     9    20    1
    23    10    12    1
    24    10    16    1
    25    10    17    1
    26    10    19    1
    27    11    13    1
    28    11    32    1
    29    11    43    1
    30    12    14    1
    31    12    31    1
    32    12    44    1
    33    13    22    1
    34    13    45    1
    35    14    21    1
    36    14    46    1
    37    15    27    1
    38    15    47    1
    39    16    28    1
    40    16    48    1
    41    17    24   ar
    42    17    29   ar
    43    18    23   ar
    44    18    30   ar
    45    19    25    1
    46    19    49    1
    47    19    50    1
    48    20    26    1
    49    20    51    1
    50    20    52    1
    51    21    24    1
    52    21    55    1
    53    21    56    1
    54    22    23    1
    55    22    53    1
    56    22    54    1
    57    23    37   ar
    58    24    38   ar
    59    25    57    1
    60    25    58    1
    61    26    59    1
    62    26    60    1
    63    27    34    1
    64    27    61    1
    65    28    33    1
    66    28    62    1
    67    29    40   ar
    68    30    39   ar
    69    31    33    2
    70    31    64    1
    71    32    34    2
    72    32    63    1
    73    33    66    1
    74    34    65    1
    75    35    36    1
    76    35    38   ar
    77    35    40   ar
    78    36    37   ar
    79    36    39   ar
    80    37    67    1
    81    38    68    1
    82    41    69    1
    83    41    70    1
    84    41    71    1
    85    42    72    1
    86    42    73    1
    87    42    74    1
