@<TRIPOS>MOLECULE
IMPHY005677
 51 54 0 0 0
SMALL
GASTEIGER

@<TRIPOS>ATOM
      1 O           6.5008    0.8926    0.0000 O.3     1  UNL1       -0.2185
      2 O           6.2536    1.6534    0.0000 O.3     1  UNL1       -0.2228
      3 O           3.7556    1.3371    0.0000 O.3     1  UNL1       -0.4570
      4 O           6.9381   -1.3567    0.0000 O.3     1  UNL1       -0.4491
      5 O           5.8064   -2.2071    0.0000 O.3     1  UNL1       -0.3877
      6 O           2.0000    1.2222    0.0000 O.2     1  UNL1       -0.2453
      7 O           8.2485   -0.2241    0.0000 O.2     1  UNL1       -0.2453
      8 C           5.4378    0.9678    0.0000 C.3     1  UNL1        0.0716
      9 C           6.2468    0.3800    0.0000 C.3     1  UNL1        0.1733
     10 C           5.7468    1.9188    0.0000 C.3     1  UNL1        0.1292
     11 C           6.2842   -0.6001    0.0000 C.3     1  UNL1        0.1723
     12 C           4.4941    0.7005    0.0000 C.3     1  UNL1        0.1194
     13 C           4.1123   -0.2029    0.0000 C.3     1  UNL1        0.0304
     14 C           5.5430   -1.2424    0.0000 C.3     1  UNL1        0.0985
     15 C           7.0558    0.9678    0.0000 C.2     1  UNL1       -0.0463
     16 C           4.5782   -1.0660    0.0000 C.3     1  UNL1       -0.0126
     17 C           6.7468    1.9188    0.0000 C.2     1  UNL1       -0.0503
     18 C           5.4378    2.8699    0.0000 C.3     1  UNL1       -0.0286
     19 C           7.2834   -0.5606    0.0000 C.3     1  UNL1       -0.0191
     20 C           3.1411   -0.1169    0.0000 C.2     1  UNL1        0.0362
     21 C           2.9211    0.8329    0.0000 C.2     1  UNL1        0.3353
     22 C           2.4849   -0.8715    0.0000 C.2     1  UNL1       -0.0883
     23 C           7.9202   -1.1687    0.0000 C.2     1  UNL1        0.3353
     24 C           8.5741   -1.9253    0.0000 C.2     1  UNL1        0.0294
     25 C           8.2458   -2.8699    0.0000 C.3     1  UNL1       -0.0333
     26 C           9.5563   -1.7374    0.0000 C.2     1  UNL1       -0.0774
     27 C          10.2102   -2.4940    0.0000 C.3     1  UNL1       -0.0461
     28 H           4.8483    1.5802    0.0000 H       1  UNL1        0.0403
     29 H           5.0568    0.0634    0.0000 H       1  UNL1        0.0745
     30 H           3.6450   -0.9130    0.0000 H       1  UNL1        0.0388
     31 H           6.1362   -1.4227    0.0000 H       1  UNL1        0.0634
     32 H           7.6454    0.7762    0.0000 H       1  UNL1        0.0601
     33 H           3.9806   -1.2312    0.0000 H       1  UNL1        0.0298
     34 H           4.6057   -1.6854    0.0000 H       1  UNL1        0.0298
     35 H           7.1112    2.4204    0.0000 H       1  UNL1        0.0599
     36 H           6.0274    3.0615    0.0000 H       1  UNL1        0.0262
     37 H           5.2462    3.4596    0.0000 H       1  UNL1        0.0262
     38 H           4.8481    2.6783    0.0000 H       1  UNL1        0.0262
     39 H           7.3079   -1.1801    0.0000 H       1  UNL1        0.0270
     40 H           7.9029   -0.5361    0.0000 H       1  UNL1        0.0270
     41 H           7.2589    0.0589    0.0000 H       1  UNL1        0.0270
     42 H           5.3701   -2.6476    0.0000 H       1  UNL1        0.2100
     43 H           1.8763   -0.7531    0.0000 H       1  UNL1        0.0540
     44 H           2.6866   -1.4578    0.0000 H       1  UNL1        0.0540
     45 H           7.6602   -2.6664    0.0000 H       1  UNL1        0.0280
     46 H           8.0423   -3.4555    0.0000 H       1  UNL1        0.0280
     47 H           8.8315   -3.0734    0.0000 H       1  UNL1        0.0280
     48 H           9.7598   -1.1517    0.0000 H       1  UNL1        0.0574
     49 H           9.7411   -2.8994    0.0000 H       1  UNL1        0.0272
     50 H          10.6156   -2.9630    0.0000 H       1  UNL1        0.0272
     51 H          10.6793   -2.0886    0.0000 H       1  UNL1        0.0272
@<TRIPOS>BOND
     1     1     2    1
     2     1     9    1
     3     2    10    1
     4     3    12    1
     5     3    21    1
     6    11     4    1
     7     4    23    1
     8    14     5    1
     9     5    42    1
    10     6    21    2
    11     7    23    2
    12     8     9    1
    13     8    10    1
    14     8    12    1
    15     8    28    1
    16     9    11    1
    17     9    15    1
    18    10    17    1
    19    10    18    1
    20    11    14    1
    21    11    19    1
    22    12    13    1
    23    12    29    1
    24    13    16    1
    25    13    20    1
    26    13    30    1
    27    14    16    1
    28    14    31    1
    29    15    17    2
    30    15    32    1
    31    16    33    1
    32    16    34    1
    33    17    35    1
    34    18    36    1
    35    18    37    1
    36    18    38    1
    37    19    39    1
    38    19    40    1
    39    19    41    1
    40    20    21    1
    41    20    22    2
    42    22    43    1
    43    22    44    1
    44    23    24    1
    45    24    25    1
    46    24    26    2
    47    25    45    1
    48    25    46    1
    49    25    47    1
    50    26    27    1
    51    26    48    1
    52    27    49    1
    53    27    50    1
    54    27    51    1
