@<TRIPOS>MOLECULE
IMPHY017286
 34 33 0 0 0
SMALL
GASTEIGER

@<TRIPOS>ATOM
      1 O           2.5369    0.2500    0.0000 O.3     1  UNL1       -0.3950
      2 O          12.0632   -0.2500    0.0000 O.3     1  UNL1       -0.3950
      3 C           6.8671   -0.2500    0.0000 C.3     1  UNL1       -0.0531
      4 C           7.7331    0.2500    0.0000 C.3     1  UNL1       -0.0531
      5 C           6.0010    0.2500    0.0000 C.3     1  UNL1       -0.0530
      6 C           8.5991   -0.2500    0.0000 C.3     1  UNL1       -0.0530
      7 C           5.1350   -0.2500    0.0000 C.3     1  UNL1       -0.0510
      8 C           9.4651    0.2500    0.0000 C.3     1  UNL1       -0.0510
      9 C           4.2690    0.2500    0.0000 C.3     1  UNL1       -0.0297
     10 C          10.3312   -0.2500    0.0000 C.3     1  UNL1       -0.0297
     11 C           3.4030   -0.2500    0.0000 C.3     1  UNL1        0.0442
     12 C          11.1972    0.2500    0.0000 C.3     1  UNL1        0.0442
     13 H           6.4685   -0.7249    0.0000 H       1  UNL1        0.0265
     14 H           7.2656   -0.7249    0.0000 H       1  UNL1        0.0265
     15 H           8.1316    0.7249    0.0000 H       1  UNL1        0.0265
     16 H           7.3346    0.7249    0.0000 H       1  UNL1        0.0265
     17 H           6.3996    0.7249    0.0000 H       1  UNL1        0.0265
     18 H           5.6025    0.7249    0.0000 H       1  UNL1        0.0265
     19 H           8.2006   -0.7249    0.0000 H       1  UNL1        0.0265
     20 H           8.9976   -0.7249    0.0000 H       1  UNL1        0.0265
     21 H           4.7365   -0.7249    0.0000 H       1  UNL1        0.0266
     22 H           5.5335   -0.7249    0.0000 H       1  UNL1        0.0266
     23 H           9.8637    0.7249    0.0000 H       1  UNL1        0.0266
     24 H           9.0666    0.7249    0.0000 H       1  UNL1        0.0266
     25 H           4.6675    0.7249    0.0000 H       1  UNL1        0.0287
     26 H           3.8705    0.7249    0.0000 H       1  UNL1        0.0287
     27 H           9.9326   -0.7249    0.0000 H       1  UNL1        0.0287
     28 H          10.7297   -0.7249    0.0000 H       1  UNL1        0.0287
     29 H           3.0044   -0.7249    0.0000 H       1  UNL1        0.0557
     30 H           3.8015   -0.7249    0.0000 H       1  UNL1        0.0557
     31 H          11.5957    0.7249    0.0000 H       1  UNL1        0.0557
     32 H          10.7987    0.7249    0.0000 H       1  UNL1        0.0557
     33 H           2.0000   -0.0600    0.0000 H       1  UNL1        0.2094
     34 H          12.6002    0.0600    0.0000 H       1  UNL1        0.2094
@<TRIPOS>BOND
     1     1    11    1
     2     1    33    1
     3     2    12    1
     4     2    34    1
     5     3     4    1
     6     3     5    1
     7     3    13    1
     8     3    14    1
     9     4     6    1
    10     4    15    1
    11     4    16    1
    12     5     7    1
    13     5    17    1
    14     5    18    1
    15     6     8    1
    16     6    19    1
    17     6    20    1
    18     7     9    1
    19     7    21    1
    20     7    22    1
    21     8    10    1
    22     8    23    1
    23     8    24    1
    24     9    11    1
    25     9    25    1
    26     9    26    1
    27    10    12    1
    28    10    27    1
    29    10    28    1
    30    11    29    1
    31    11    30    1
    32    12    31    1
    33    12    32    1
