@<TRIPOS>MOLECULE
IMPHY016194
 32 31 0 0 0
SMALL
GASTEIGER

@<TRIPOS>ATOM
      1 O           9.7942   -0.2500    0.0000 O.3     1  UNL1       -0.4648
      2 O           3.7320    0.2500    0.0000 O.3     1  UNL1       -0.4648
      3 O          10.6603    1.2500    0.0000 O.2     1  UNL1       -0.2512
      4 O           2.8660   -1.2500    0.0000 O.2     1  UNL1       -0.2512
      5 C           7.1962    0.2500    0.0000 C.3     1  UNL1       -0.0499
      6 C           6.3301   -0.2500    0.0000 C.3     1  UNL1       -0.0499
      7 C           8.0622   -0.2500    0.0000 C.3     1  UNL1       -0.0185
      8 C           5.4641    0.2500    0.0000 C.3     1  UNL1       -0.0185
      9 C           8.9282    0.2500    0.0000 C.3     1  UNL1        0.0924
     10 C           4.5981   -0.2500    0.0000 C.3     1  UNL1        0.0924
     11 C          10.6603    0.2500    0.0000 C.2     1  UNL1        0.3039
     12 C           2.8660   -0.2500    0.0000 C.2     1  UNL1        0.3039
     13 C          11.5263   -0.2500    0.0000 C.3     1  UNL1        0.0332
     14 C           2.0000    0.2500    0.0000 C.3     1  UNL1        0.0332
     15 H           7.5947    0.7249    0.0000 H       1  UNL1        0.0266
     16 H           6.7976    0.7249    0.0000 H       1  UNL1        0.0266
     17 H           5.9316   -0.7249    0.0000 H       1  UNL1        0.0266
     18 H           6.7287   -0.7249    0.0000 H       1  UNL1        0.0266
     19 H           7.6636   -0.7249    0.0000 H       1  UNL1        0.0298
     20 H           8.4607   -0.7249    0.0000 H       1  UNL1        0.0298
     21 H           5.8626    0.7249    0.0000 H       1  UNL1        0.0298
     22 H           5.0656    0.7249    0.0000 H       1  UNL1        0.0298
     23 H           9.3267    0.7249    0.0000 H       1  UNL1        0.0697
     24 H           8.5297    0.7249    0.0000 H       1  UNL1        0.0697
     25 H           4.1996   -0.7249    0.0000 H       1  UNL1        0.0697
     26 H           4.9966   -0.7249    0.0000 H       1  UNL1        0.0697
     27 H          11.2163   -0.7869    0.0000 H       1  UNL1        0.0342
     28 H          12.0632   -0.5600    0.0000 H       1  UNL1        0.0342
     29 H          11.8363    0.2869    0.0000 H       1  UNL1        0.0342
     30 H           2.3100    0.7869    0.0000 H       1  UNL1        0.0342
     31 H           1.4631    0.5600    0.0000 H       1  UNL1        0.0342
     32 H           1.6900   -0.2869    0.0000 H       1  UNL1        0.0342
@<TRIPOS>BOND
     1     1     9    1
     2     1    11    1
     3     2    10    1
     4     2    12    1
     5     3    11    2
     6     4    12    2
     7     5     6    1
     8     5     7    1
     9     5    15    1
    10     5    16    1
    11     6     8    1
    12     6    17    1
    13     6    18    1
    14     7     9    1
    15     7    19    1
    16     7    20    1
    17     8    10    1
    18     8    21    1
    19     8    22    1
    20     9    23    1
    21     9    24    1
    22    10    25    1
    23    10    26    1
    24    11    13    1
    25    12    14    1
    26    13    27    1
    27    13    28    1
    28    13    29    1
    29    14    30    1
    30    14    31    1
    31    14    32    1
