@<TRIPOS>MOLECULE
IMPHY000927
 61 66 0 0 0
SMALL
GASTEIGER

@<TRIPOS>ATOM
      1 O           3.0261   -0.0401    0.0000 O.3     1  UNL1       -0.3911
      2 O           4.4900   -1.5740    0.0000 O.3     1  UNL1       -0.3873
      3 O           7.2491    1.3083    0.0000 O.3     1  UNL1       -0.3791
      4 O           7.3588   -1.8649    0.0000 O.3     1  UNL1       -0.4611
      5 O           7.8049   -0.2876    0.0000 O.2     1  UNL1       -0.2504
      6 N           3.6276    0.7947    0.0000 N.3     1  UNL1       -0.2981
      7 C           5.3830    0.8083    0.0000 C.3     1  UNL1        0.0224
      8 C           4.5170    1.3083    0.0000 C.3     1  UNL1        0.0017
      9 C           4.5092    0.2902    0.0000 C.3     1  UNL1        0.0269
     10 C           4.5438   -0.6638    0.0000 C.3     1  UNL1        0.0311
     11 C           6.2035    0.3202    0.0000 C.3     1  UNL1       -0.0123
     12 C           4.5170    2.3083    0.0000 C.3     1  UNL1       -0.0134
     13 C           3.9611    0.3145    0.0000 C.3     1  UNL1        0.0661
     14 C           5.3816   -1.1213    0.0000 C.3     1  UNL1        0.0859
     15 C           6.2028   -0.6344    0.0000 C.3     1  UNL1        0.0890
     16 C           6.2491    1.3083    0.0000 C.3     1  UNL1        0.0660
     17 C           3.6315    1.8106    0.0000 C.3     1  UNL1        0.0049
     18 C           5.3830    2.8083    0.0000 C.3     1  UNL1       -0.0437
     19 C           5.6657   -1.3453    0.0000 C.3     1  UNL1       -0.0113
     20 C           6.2491    2.3083    0.0000 C.3     1  UNL1       -0.0255
     21 C           5.2591   -2.0495    0.0000 C.3     1  UNL1       -0.0195
     22 C           6.8393   -2.6439    0.0000 C.3     1  UNL1        0.1035
     23 C           4.0220    3.1772    0.0000 C.3     1  UNL1       -0.0580
     24 C           5.9065   -2.7259    0.0000 C.3     1  UNL1       -0.0130
     25 C           7.0761   -0.9723    0.0000 C.2     1  UNL1        0.3135
     26 C           2.6428    0.6211    0.0000 C.3     1  UNL1       -0.0036
     27 C           2.0000    1.3872    0.0000 C.3     1  UNL1       -0.0523
     28 C           7.7491    2.1743    0.0000 C.3     1  UNL1        0.0368
     29 H           5.2473    1.7432    0.0000 H       1  UNL1        0.0338
     30 H           5.0534   -0.0069    0.0000 H       1  UNL1        0.0473
     31 H           3.8207   -1.1107    0.0000 H       1  UNL1        0.0369
     32 H           7.0534    0.3092    0.0000 H       1  UNL1        0.0317
     33 H           3.5562    0.7840    0.0000 H       1  UNL1        0.0600
     34 H           6.9340   -0.2009    0.0000 H       1  UNL1        0.0445
     35 H           6.4096    0.7094    0.0000 H       1  UNL1        0.0602
     36 H           3.4247    2.3951    0.0000 H       1  UNL1        0.0432
     37 H           3.0202    1.7068    0.0000 H       1  UNL1        0.0432
     38 H           5.7816    3.2832    0.0000 H       1  UNL1        0.0272
     39 H           4.9845    3.2832    0.0000 H       1  UNL1        0.0272
     40 H           5.1178   -1.0553    0.0000 H       1  UNL1        0.0304
     41 H           5.2849   -1.8346    0.0000 H       1  UNL1        0.0304
     42 H           6.8597    2.2006    0.0000 H       1  UNL1        0.0290
     43 H           6.4611    2.8909    0.0000 H       1  UNL1        0.0290
     44 H           4.6781   -1.8331    0.0000 H       1  UNL1        0.0294
     45 H           4.9183   -2.5675    0.0000 H       1  UNL1        0.0294
     46 H           7.2727   -3.3750    0.0000 H       1  UNL1        0.0734
     47 H           4.5608    3.4841    0.0000 H       1  UNL1        0.0236
     48 H           3.7152    3.7159    0.0000 H       1  UNL1        0.0236
     49 H           3.4833    2.8703    0.0000 H       1  UNL1        0.0236
     50 H           5.3742   -3.0437    0.0000 H       1  UNL1        0.0302
     51 H           6.0974   -3.3158    0.0000 H       1  UNL1        0.0302
     52 H           2.1058    0.3112    0.0000 H       1  UNL1        0.0424
     53 H           2.8548    0.0385    0.0000 H       1  UNL1        0.0424
     54 H           2.9267   -0.6521    0.0000 H       1  UNL1        0.2098
     55 H           4.4567   -2.1932    0.0000 H       1  UNL1        0.2102
     56 H           2.4750    1.7857    0.0000 H       1  UNL1        0.0242
     57 H           1.6015    1.8622    0.0000 H       1  UNL1        0.0242
     58 H           1.5250    0.9887    0.0000 H       1  UNL1        0.0242
     59 H           8.2860    1.8643    0.0000 H       1  UNL1        0.0524
     60 H           8.0591    2.7112    0.0000 H       1  UNL1        0.0524
     61 H           7.2121    2.4843    0.0000 H       1  UNL1        0.0524
@<TRIPOS>BOND
     1    13     1    1
     2     1    54    1
     3    14     2    1
     4     2    55    1
     5    16     3    1
     6     3    28    1
     7     4    22    1
     8     4    25    1
     9     5    25    2
    10     6     9    1
    11     6    17    1
    12     6    26    1
    13     7     8    1
    14     7     9    1
    15     7    11    1
    16     7    16    1
    17     8    12    1
    18     8    13    1
    19     8    29    1
    20     9    10    1
    21     9    30    1
    22    10    13    1
    23    10    14    1
    24    10    31    1
    25    11    15    1
    26    11    19    1
    27    11    32    1
    28    12    17    1
    29    12    18    1
    30    12    23    1
    31    13    33    1
    32    14    15    1
    33    14    21    1
    34    15    25    1
    35    15    34    1
    36    16    20    1
    37    16    35    1
    38    17    36    1
    39    17    37    1
    40    18    20    1
    41    18    38    1
    42    18    39    1
    43    19    22    1
    44    19    40    1
    45    19    41    1
    46    20    42    1
    47    20    43    1
    48    21    24    1
    49    21    44    1
    50    21    45    1
    51    22    24    1
    52    22    46    1
    53    23    47    1
    54    23    48    1
    55    23    49    1
    56    24    50    1
    57    24    51    1
    58    26    27    1
    59    26    52    1
    60    26    53    1
    61    27    56    1
    62    27    57    1
    63    27    58    1
    64    28    59    1
    65    28    60    1
    66    28    61    1
