@<TRIPOS>MOLECULE
IMPHY013438
 54 57 0 0 0
SMALL
GASTEIGER

@<TRIPOS>ATOM
      1 O           5.1350   -1.2857    0.0000 O.3     1  UNL1       -0.3221
      2 O           6.8671   -1.2857    0.0000 O.3     1  UNL1       -0.4532
      3 O           5.1350   -4.2857    0.0000 O.3     1  UNL1       -0.3863
      4 O           6.8671   -3.2857    0.0000 O.3     1  UNL1       -0.3829
      5 O           3.4030   -3.2857    0.0000 O.3     1  UNL1       -0.3860
      6 O           2.5369   -1.7857    0.0000 O.3     1  UNL1       -0.4788
      7 O           7.7331    1.2143    0.0000 O.2     1  UNL1       -0.4507
      8 O           3.4030   -0.2857    0.0000 O.2     1  UNL1       -0.2480
      9 O           5.1350   -0.2857    0.0000 O.2     1  UNL1       -0.2830
     10 O           4.2308    1.2112    0.0000 O.3     1  UNL1       -0.5058
     11 O           5.9889    4.2836    0.0000 O.3     1  UNL1       -0.5065
     12 O          11.1972   -1.7857    0.0000 O.3     1  UNL1       -0.4951
     13 C           5.1350   -3.2857    0.0000 C.3     1  UNL1        0.1157
     14 C           6.0010   -2.7857    0.0000 C.3     1  UNL1        0.1455
     15 C           4.2690   -2.7857    0.0000 C.3     1  UNL1        0.1202
     16 C           6.0010   -1.7857    0.0000 C.3     1  UNL1        0.2316
     17 C           4.2690   -1.7857    0.0000 C.3     1  UNL1        0.1869
     18 C           3.4030   -1.2857    0.0000 C.2     1  UNL1        0.3367
     19 C           6.8671   -0.2857    0.0000 C.ar    1  UNL1        0.2138
     20 C           7.7331    0.2143    0.0000 C.ar    1  UNL1        0.1809
     21 C           6.0010    0.2143    0.0000 C.ar    1  UNL1        0.2382
     22 C           6.0010    1.2143    0.0000 C.ar    1  UNL1        0.1092
     23 C           6.8671    1.7143    0.0000 C.ar    1  UNL1        0.1465
     24 C           8.5991   -0.2857    0.0000 C.ar    1  UNL1        0.0213
     25 C           5.0910    1.7212    0.0000 C.ar    1  UNL1        0.1348
     26 C           6.8831    2.7558    0.0000 C.ar    1  UNL1        0.0231
     27 C           8.5991   -1.2857    0.0000 C.ar    1  UNL1       -0.0475
     28 C           9.4651    0.2143    0.0000 C.ar    1  UNL1       -0.0475
     29 C           5.0830    2.7628    0.0000 C.ar    1  UNL1        0.0223
     30 C           5.9851    3.2836    0.0000 C.ar    1  UNL1        0.1239
     31 C           9.4651   -1.7857    0.0000 C.ar    1  UNL1       -0.0193
     32 C          10.3312   -0.2857    0.0000 C.ar    1  UNL1       -0.0193
     33 C          10.3312   -1.2857    0.0000 C.ar    1  UNL1        0.1201
     34 C          11.1972   -2.7857    0.0000 C.3     1  UNL1        0.0788
     35 H           4.5981   -3.5957    0.0000 H       1  UNL1        0.0648
     36 H           6.0010   -3.4057    0.0000 H       1  UNL1        0.0683
     37 H           3.7320   -2.4757    0.0000 H       1  UNL1        0.0652
     38 H           6.0010   -1.1657    0.0000 H       1  UNL1        0.1084
     39 H           4.2690   -1.1657    0.0000 H       1  UNL1        0.0742
     40 H           5.6720   -4.5957    0.0000 H       1  UNL1        0.2100
     41 H           7.4040   -2.9757    0.0000 H       1  UNL1        0.2102
     42 H           3.4030   -3.9057    0.0000 H       1  UNL1        0.2100
     43 H           2.0000   -1.4757    0.0000 H       1  UNL1        0.2951
     44 H           7.4236    3.0596    0.0000 H       1  UNL1        0.0691
     45 H           8.0622   -1.5957    0.0000 H       1  UNL1        0.0626
     46 H           9.4651    0.8343    0.0000 H       1  UNL1        0.0626
     47 H           4.5449    3.0707    0.0000 H       1  UNL1        0.0691
     48 H           9.4651   -2.4057    0.0000 H       1  UNL1        0.0654
     49 H          10.8681    0.0243    0.0000 H       1  UNL1        0.0654
     50 H           3.6904    1.5150    0.0000 H       1  UNL1        0.2922
     51 H           5.4532    4.5957    0.0000 H       1  UNL1        0.2921
     52 H          10.5772   -2.7857    0.0000 H       1  UNL1        0.0660
     53 H          11.1972   -3.4057    0.0000 H       1  UNL1        0.0660
     54 H          11.8172   -2.7857    0.0000 H       1  UNL1        0.0660
@<TRIPOS>BOND
     1     1    16    1
     2     1    17    1
     3     2    16    1
     4     2    19    1
     5     3    13    1
     6     3    40    1
     7     4    14    1
     8     4    41    1
     9     5    15    1
    10     5    42    1
    11     6    18    1
    12     6    43    1
    13     7    20   ar
    14     7    23   ar
    15     8    18    2
    16     9    21    2
    17    10    25    1
    18    10    50    1
    19    11    30    1
    20    11    51    1
    21    12    33    1
    22    12    34    1
    23    13    14    1
    24    13    15    1
    25    13    35    1
    26    14    16    1
    27    14    36    1
    28    15    17    1
    29    15    37    1
    30    16    38    1
    31    17    18    1
    32    17    39    1
    33    19    20   ar
    34    19    21   ar
    35    20    24    1
    36    21    22   ar
    37    22    23   ar
    38    22    25   ar
    39    23    26   ar
    40    24    27   ar
    41    24    28   ar
    42    25    29   ar
    43    26    30   ar
    44    26    44    1
    45    27    31   ar
    46    27    45    1
    47    28    32   ar
    48    28    46    1
    49    29    30   ar
    50    29    47    1
    51    31    33   ar
    52    31    48    1
    53    32    33   ar
    54    32    49    1
    55    34    52    1
    56    34    53    1
    57    34    54    1
