@<TRIPOS>MOLECULE
IMPHY014423
 85 89 0 0 0
SMALL
GASTEIGER

@<TRIPOS>ATOM
      1 O           6.4144   -2.6942    0.0000 O.3     1  UNL1       -0.3906
      2 O          11.1246    3.2830    0.0000 O.3     1  UNL1       -0.3912
      3 O           3.9891   -2.9031    0.0000 O.3     1  UNL1       -0.4675
      4 O           5.1937   -3.3521    0.0000 O.2     1  UNL1       -0.2501
      5 C           7.5167    0.1387    0.0000 C.3     1  UNL1       -0.0193
      6 C           7.5167    1.1387    0.0000 C.3     1  UNL1       -0.0257
      7 C           8.4106    1.6733    0.0000 C.3     1  UNL1       -0.0250
      8 C           6.6507   -0.3613    0.0000 C.3     1  UNL1       -0.0028
      9 C           9.3167    1.1595    0.0000 C.3     1  UNL1       -0.0278
     10 C           8.4106   -0.3960    0.0000 C.3     1  UNL1       -0.0463
     11 C           5.7847    0.1387    0.0000 C.2     1  UNL1       -0.0627
     12 C           9.3167    0.1178    0.0000 C.3     1  UNL1       -0.0486
     13 C          10.2605    1.6947    0.0000 C.3     1  UNL1       -0.0056
     14 C           4.8746   -0.3682    0.0000 C.3     1  UNL1       -0.0007
     15 C           6.6667   -1.4028    0.0000 C.3     1  UNL1       -0.0162
     16 C           6.6507    1.6387    0.0000 C.3     1  UNL1       -0.0306
     17 C           4.8666   -1.4098    0.0000 C.3     1  UNL1        0.0999
     18 C           8.3856    2.7580    0.0000 C.3     1  UNL1       -0.0447
     19 C           5.7687   -1.9306    0.0000 C.3     1  UNL1        0.0723
     20 C           7.8588   -0.8010    0.0000 C.3     1  UNL1       -0.0585
     21 C           5.7847    1.1387    0.0000 C.2     1  UNL1       -0.0836
     22 C          10.2605    2.7797    0.0000 C.3     1  UNL1        0.0606
     23 C           7.5408    2.1666    0.0000 C.3     1  UNL1       -0.0590
     24 C           9.3167    3.3149    0.0000 C.3     1  UNL1       -0.0258
     25 C           7.2935   -1.1274    0.0000 C.3     1  UNL1       -0.0552
     26 C           3.9478    0.1959    0.0000 C.3     1  UNL1       -0.0402
     27 C           3.9312   -1.9595    0.0000 C.3     1  UNL1       -0.0338
     28 C           2.9999   -0.3321    0.0000 C.3     1  UNL1       -0.0343
     29 C           2.9916   -1.4170    0.0000 C.3     1  UNL1       -0.0467
     30 C          11.2605    1.6909    0.0000 C.3     1  UNL1       -0.0572
     31 C          10.7572    0.8268    0.0000 C.3     1  UNL1       -0.0572
     32 C           4.8589   -2.4098    0.0000 C.2     1  UNL1        0.3161
     33 C           2.0000   -0.3205    0.0000 C.3     1  UNL1       -0.0598
     34 C           2.5100    0.5397    0.0000 C.3     1  UNL1       -0.0598
     35 C           3.9814   -3.9030    0.0000 C.3     1  UNL1        0.0817
     36 H           8.2561    0.7193    0.0000 H       1  UNL1        0.0315
     37 H          10.0512    0.7316    0.0000 H       1  UNL1        0.0312
     38 H           8.0060   -0.8658    0.0000 H       1  UNL1        0.0271
     39 H           8.8043   -0.8750    0.0000 H       1  UNL1        0.0271
     40 H           9.5258   -0.4658    0.0000 H       1  UNL1        0.0268
     41 H           9.9276    0.2239    0.0000 H       1  UNL1        0.0268
     42 H           4.8910    0.4817    0.0000 H       1  UNL1        0.0357
     43 H           6.8848   -1.9832    0.0000 H       1  UNL1        0.0299
     44 H           7.2759   -1.2874    0.0000 H       1  UNL1        0.0299
     45 H           7.0492    2.1136    0.0000 H       1  UNL1        0.0310
     46 H           6.2522    2.1136    0.0000 H       1  UNL1        0.0310
     47 H           8.1631    3.3367    0.0000 H       1  UNL1        0.0271
     48 H           7.7773    2.6378    0.0000 H       1  UNL1        0.0271
     49 H           5.3711   -2.4063    0.0000 H       1  UNL1        0.0605
     50 H           7.2762   -1.0131    0.0000 H       1  UNL1        0.0235
     51 H           8.0709   -1.3836    0.0000 H       1  UNL1        0.0235
     52 H           8.4414   -0.5889    0.0000 H       1  UNL1        0.0235
     53 H           5.2477    1.4487    0.0000 H       1  UNL1        0.0572
     54 H          10.2569    3.3997    0.0000 H       1  UNL1        0.0599
     55 H           7.8466    2.7059    0.0000 H       1  UNL1        0.0235
     56 H           7.0015    2.4725    0.0000 H       1  UNL1        0.0235
     57 H           7.2349    1.6273    0.0000 H       1  UNL1        0.0235
     58 H           9.7103    3.7940    0.0000 H       1  UNL1        0.0290
     59 H           8.9121    3.7847    0.0000 H       1  UNL1        0.0290
     60 H           6.8185   -1.5259    0.0000 H       1  UNL1        0.0238
     61 H           7.6920   -1.6023    0.0000 H       1  UNL1        0.0238
     62 H           7.7684   -0.7289    0.0000 H       1  UNL1        0.0238
     63 H           4.3560    0.6625    0.0000 H       1  UNL1        0.0276
     64 H           3.5579    0.6779    0.0000 H       1  UNL1        0.0276
     65 H           3.5339   -2.4355    0.0000 H       1  UNL1        0.0277
     66 H           4.3322   -2.4324    0.0000 H       1  UNL1        0.0277
     67 H           2.3816   -1.3062    0.0000 H       1  UNL1        0.0271
     68 H           2.7780   -1.9991    0.0000 H       1  UNL1        0.0271
     69 H          11.2581    1.0709    0.0000 H       1  UNL1        0.0236
     70 H          11.8805    1.6885    0.0000 H       1  UNL1        0.0236
     71 H          11.2629    2.3108    0.0000 H       1  UNL1        0.0236
     72 H          10.2190    0.5188    0.0000 H       1  UNL1        0.0236
     73 H          11.0651    0.2886    0.0000 H       1  UNL1        0.0236
     74 H          11.2953    1.1347    0.0000 H       1  UNL1        0.0236
     75 H           7.0246   -2.5842    0.0000 H       1  UNL1        0.2098
     76 H           2.0072    0.2995    0.0000 H       1  UNL1        0.0235
     77 H           1.3800   -0.3133    0.0000 H       1  UNL1        0.0235
     78 H           1.9928   -0.9404    0.0000 H       1  UNL1        0.0235
     79 H           3.0505    0.8435    0.0000 H       1  UNL1        0.0235
     80 H           2.2062    1.0802    0.0000 H       1  UNL1        0.0235
     81 H           1.9695    0.2359    0.0000 H       1  UNL1        0.0235
     82 H          11.1222    3.9030    0.0000 H       1  UNL1        0.2098
     83 H           3.3614   -3.8983    0.0000 H       1  UNL1        0.0661
     84 H           3.9766   -4.5230    0.0000 H       1  UNL1        0.0661
     85 H           4.6013   -3.9078    0.0000 H       1  UNL1        0.0661
@<TRIPOS>BOND
     1    19     1    1
     2     1    75    1
     3    22     2    1
     4     2    82    1
     5     3    32    1
     6     3    35    1
     7     4    32    2
     8     5     6    1
     9     5     8    1
    10     5    10    1
    11     5    20    1
    12     6     7    1
    13     6    16    1
    14     6    36    1
    15     7     9    1
    16     7    18    1
    17     7    23    1
    18     8    11    1
    19     8    15    1
    20     8    25    1
    21     9    12    1
    22     9    13    1
    23     9    37    1
    24    10    12    1
    25    10    38    1
    26    10    39    1
    27    11    14    1
    28    11    21    2
    29    12    40    1
    30    12    41    1
    31    13    22    1
    32    13    30    1
    33    13    31    1
    34    14    17    1
    35    14    26    1
    36    14    42    1
    37    15    19    1
    38    15    43    1
    39    15    44    1
    40    16    21    1
    41    16    45    1
    42    16    46    1
    43    17    19    1
    44    17    27    1
    45    17    32    1
    46    18    24    1
    47    18    47    1
    48    18    48    1
    49    19    49    1
    50    20    50    1
    51    20    51    1
    52    20    52    1
    53    21    53    1
    54    22    24    1
    55    22    54    1
    56    23    55    1
    57    23    56    1
    58    23    57    1
    59    24    58    1
    60    24    59    1
    61    25    60    1
    62    25    61    1
    63    25    62    1
    64    26    28    1
    65    26    63    1
    66    26    64    1
    67    27    29    1
    68    27    65    1
    69    27    66    1
    70    28    29    1
    71    28    33    1
    72    28    34    1
    73    29    67    1
    74    29    68    1
    75    30    69    1
    76    30    70    1
    77    30    71    1
    78    31    72    1
    79    31    73    1
    80    31    74    1
    81    33    76    1
    82    33    77    1
    83    33    78    1
    84    34    79    1
    85    34    80    1
    86    34    81    1
    87    35    83    1
    88    35    84    1
    89    35    85    1
