@<TRIPOS>MOLECULE
IMPHY004638
 98 98 0 0 0
SMALL
GASTEIGER

@<TRIPOS>ATOM
      1 O           8.1962   -1.2500    0.0000 O.3     1  UNL1       -0.4604
      2 O           7.3301    0.2500    0.0000 O.2     1  UNL1       -0.2508
      3 C           3.0000   -9.2500    0.0000 C.3     1  UNL1       -0.0099
      4 C           3.0000  -10.2500    0.0000 C.3     1  UNL1       -0.0436
      5 C           3.8660  -10.7500    0.0000 C.3     1  UNL1       -0.0486
      6 C           3.8660   -8.7500    0.0000 C.2     1  UNL1       -0.0427
      7 C           4.7320  -10.2500    0.0000 C.3     1  UNL1       -0.0314
      8 C           4.7320   -9.2500    0.0000 C.2     1  UNL1       -0.0689
      9 C           2.0000   -9.2500    0.0000 C.3     1  UNL1       -0.0558
     10 C           2.5000   -8.3840    0.0000 C.3     1  UNL1       -0.0558
     11 C           3.8660   -7.7500    0.0000 C.2     1  UNL1       -0.0579
     12 C           5.5981   -8.7500    0.0000 C.3     1  UNL1       -0.0432
     13 C           4.7320   -7.2500    0.0000 C.2     1  UNL1       -0.0586
     14 C          11.6603    5.7500    0.0000 C.3     1  UNL1       -0.0531
     15 C          11.6603    4.7500    0.0000 C.3     1  UNL1       -0.0531
     16 C          12.5263    6.2500    0.0000 C.3     1  UNL1       -0.0531
     17 C          10.7942    4.2500    0.0000 C.3     1  UNL1       -0.0531
     18 C          12.5263    7.2500    0.0000 C.3     1  UNL1       -0.0531
     19 C          10.7942    3.2500    0.0000 C.3     1  UNL1       -0.0531
     20 C          13.3923    7.7500    0.0000 C.3     1  UNL1       -0.0531
     21 C           9.9282    2.7500    0.0000 C.3     1  UNL1       -0.0530
     22 C           4.7320   -6.2500    0.0000 C.2     1  UNL1       -0.0504
     23 C          13.3923    8.7500    0.0000 C.3     1  UNL1       -0.0531
     24 C           9.9282    1.7500    0.0000 C.3     1  UNL1       -0.0526
     25 C          14.2583    9.2500    0.0000 C.3     1  UNL1       -0.0533
     26 C           9.0622    1.2500    0.0000 C.3     1  UNL1       -0.0430
     27 C           3.8660   -5.7500    0.0000 C.3     1  UNL1       -0.0397
     28 C          14.2583   10.2500    0.0000 C.3     1  UNL1       -0.0559
     29 C           5.5981   -5.7500    0.0000 C.2     1  UNL1       -0.0588
     30 C           9.0622    0.2500    0.0000 C.3     1  UNL1        0.0449
     31 C          15.1244   10.7500    0.0000 C.3     1  UNL1       -0.0653
     32 C           5.5981   -4.7500    0.0000 C.2     1  UNL1       -0.0613
     33 C           8.1962   -0.2500    0.0000 C.2     1  UNL1        0.3074
     34 C           6.4641   -4.2500    0.0000 C.2     1  UNL1       -0.0590
     35 C           6.4641   -3.2500    0.0000 C.2     1  UNL1       -0.0512
     36 C           7.3301   -1.7500    0.0000 C.3     1  UNL1        0.1112
     37 C           7.3301   -2.7500    0.0000 C.2     1  UNL1       -0.0441
     38 C           5.5981   -2.7500    0.0000 C.3     1  UNL1       -0.0399
     39 H           2.3894  -10.1423    0.0000 H       1  UNL1        0.0274
     40 H           2.7880  -10.8326    0.0000 H       1  UNL1        0.0274
     41 H           3.4675  -11.2249    0.0000 H       1  UNL1        0.0269
     42 H           4.2646  -11.2249    0.0000 H       1  UNL1        0.0269
     43 H           4.9441  -10.8326    0.0000 H       1  UNL1        0.0310
     44 H           5.3426  -10.1423    0.0000 H       1  UNL1        0.0310
     45 H           2.0000   -8.6300    0.0000 H       1  UNL1        0.0238
     46 H           1.3800   -9.2500    0.0000 H       1  UNL1        0.0238
     47 H           2.0000   -9.8700    0.0000 H       1  UNL1        0.0238
     48 H           3.0369   -8.0740    0.0000 H       1  UNL1        0.0238
     49 H           2.1900   -7.8470    0.0000 H       1  UNL1        0.0238
     50 H           1.9631   -8.6940    0.0000 H       1  UNL1        0.0238
     51 H           3.3291   -7.4400    0.0000 H       1  UNL1        0.0621
     52 H           5.9081   -9.2869    0.0000 H       1  UNL1        0.0275
     53 H           6.1350   -8.4400    0.0000 H       1  UNL1        0.0275
     54 H           5.2881   -8.2131    0.0000 H       1  UNL1        0.0275
     55 H           5.2690   -7.5600    0.0000 H       1  UNL1        0.0620
     56 H          11.4482    6.3326    0.0000 H       1  UNL1        0.0265
     57 H          11.0497    5.6423    0.0000 H       1  UNL1        0.0265
     58 H          11.8723    4.1674    0.0000 H       1  UNL1        0.0265
     59 H          12.2708    4.8577    0.0000 H       1  UNL1        0.0265
     60 H          12.7383    5.6674    0.0000 H       1  UNL1        0.0265
     61 H          13.1369    6.3577    0.0000 H       1  UNL1        0.0265
     62 H          10.5822    4.8326    0.0000 H       1  UNL1        0.0265
     63 H          10.1836    4.1423    0.0000 H       1  UNL1        0.0265
     64 H          12.3142    7.8326    0.0000 H       1  UNL1        0.0265
     65 H          11.9157    7.1423    0.0000 H       1  UNL1        0.0265
     66 H          11.0063    2.6674    0.0000 H       1  UNL1        0.0265
     67 H          11.4048    3.3577    0.0000 H       1  UNL1        0.0265
     68 H          13.6044    7.1674    0.0000 H       1  UNL1        0.0265
     69 H          14.0029    7.8577    0.0000 H       1  UNL1        0.0265
     70 H           9.7162    3.3326    0.0000 H       1  UNL1        0.0265
     71 H           9.3176    2.6423    0.0000 H       1  UNL1        0.0265
     72 H          13.1803    9.3326    0.0000 H       1  UNL1        0.0265
     73 H          12.7817    8.6423    0.0000 H       1  UNL1        0.0265
     74 H          10.1403    1.1674    0.0000 H       1  UNL1        0.0265
     75 H          10.5388    1.8577    0.0000 H       1  UNL1        0.0265
     76 H          14.4704    8.6674    0.0000 H       1  UNL1        0.0265
     77 H          14.8689    9.3577    0.0000 H       1  UNL1        0.0265
     78 H           8.8501    1.8326    0.0000 H       1  UNL1        0.0270
     79 H           8.4516    1.1423    0.0000 H       1  UNL1        0.0270
     80 H           4.1760   -5.2131    0.0000 H       1  UNL1        0.0278
     81 H           3.3291   -5.4400    0.0000 H       1  UNL1        0.0278
     82 H           3.5560   -6.2869    0.0000 H       1  UNL1        0.0278
     83 H          14.0463   10.8326    0.0000 H       1  UNL1        0.0263
     84 H          13.6477   10.1423    0.0000 H       1  UNL1        0.0263
     85 H           6.1350   -6.0600    0.0000 H       1  UNL1        0.0620
     86 H           9.2742   -0.3326    0.0000 H       1  UNL1        0.0377
     87 H           9.6728    0.3577    0.0000 H       1  UNL1        0.0377
     88 H          15.4344   10.2131    0.0000 H       1  UNL1        0.0230
     89 H          15.6613   11.0600    0.0000 H       1  UNL1        0.0230
     90 H          14.8144   11.2869    0.0000 H       1  UNL1        0.0230
     91 H           5.0611   -4.4400    0.0000 H       1  UNL1        0.0618
     92 H           7.0010   -4.5600    0.0000 H       1  UNL1        0.0620
     93 H           7.1181   -1.1674    0.0000 H       1  UNL1        0.0743
     94 H           6.7196   -1.8577    0.0000 H       1  UNL1        0.0743
     95 H           7.8671   -3.0600    0.0000 H       1  UNL1        0.0608
     96 H           5.9081   -2.2131    0.0000 H       1  UNL1        0.0277
     97 H           5.0611   -2.4400    0.0000 H       1  UNL1        0.0277
     98 H           5.2881   -3.2869    0.0000 H       1  UNL1        0.0277
@<TRIPOS>BOND
     1     1    33    1
     2     1    36    1
     3     2    33    2
     4     3     4    1
     5     3     6    1
     6     3     9    1
     7     3    10    1
     8     4     5    1
     9     4    39    1
    10     4    40    1
    11     5     7    1
    12     5    41    1
    13     5    42    1
    14     6     8    2
    15     6    11    1
    16     7     8    1
    17     7    43    1
    18     7    44    1
    19     8    12    1
    20     9    45    1
    21     9    46    1
    22     9    47    1
    23    10    48    1
    24    10    49    1
    25    10    50    1
    26    11    13    2
    27    11    51    1
    28    12    52    1
    29    12    53    1
    30    12    54    1
    31    13    22    1
    32    13    55    1
    33    14    15    1
    34    14    16    1
    35    14    56    1
    36    14    57    1
    37    15    17    1
    38    15    58    1
    39    15    59    1
    40    16    18    1
    41    16    60    1
    42    16    61    1
    43    17    19    1
    44    17    62    1
    45    17    63    1
    46    18    20    1
    47    18    64    1
    48    18    65    1
    49    19    21    1
    50    19    66    1
    51    19    67    1
    52    20    23    1
    53    20    68    1
    54    20    69    1
    55    21    24    1
    56    21    70    1
    57    21    71    1
    58    22    27    1
    59    22    29    2
    60    23    25    1
    61    23    72    1
    62    23    73    1
    63    24    26    1
    64    24    74    1
    65    24    75    1
    66    25    28    1
    67    25    76    1
    68    25    77    1
    69    26    30    1
    70    26    78    1
    71    26    79    1
    72    27    80    1
    73    27    81    1
    74    27    82    1
    75    28    31    1
    76    28    83    1
    77    28    84    1
    78    29    32    1
    79    29    85    1
    80    30    33    1
    81    30    86    1
    82    30    87    1
    83    31    88    1
    84    31    89    1
    85    31    90    1
    86    32    34    2
    87    32    91    1
    88    34    35    1
    89    34    92    1
    90    35    37    2
    91    35    38    1
    92    36    37    1
    93    36    93    1
    94    36    94    1
    95    37    95    1
    96    38    96    1
    97    38    97    1
    98    38    98    1
