@<TRIPOS>MOLECULE
IMPHY002144
 36 39 0 0 0
SMALL
GASTEIGER

@<TRIPOS>ATOM
      1 O           2.4556    1.2201    0.0000 O.3     1  UNL1       -0.3649
      2 O           5.6066    2.1146    0.0000 O.3     1  UNL1       -0.4572
      3 O           6.0809   -1.4146    0.0000 O.3     1  UNL1       -0.4531
      4 O           7.1944    2.9236    0.0000 O.2     1  UNL1       -0.2453
      5 O           5.1988   -2.9236    0.0000 O.2     1  UNL1       -0.2453
      6 C           3.3895    0.8613    0.0000 C.3     1  UNL1        0.0966
      7 C           2.6124    0.2320    0.0000 C.3     1  UNL1        0.0885
      8 C           4.3840    0.7568    0.0000 C.3     1  UNL1        0.0164
      9 C           5.2976    1.1636    0.0000 C.3     1  UNL1        0.1167
     10 C           2.7688   -0.7557    0.0000 C.3     1  UNL1       -0.0197
     11 C           6.1066    0.5758    0.0000 C.3     1  UNL1        0.0681
     12 C           3.6231    1.8337    0.0000 C.3     1  UNL1       -0.0332
     13 C           6.0021   -0.4188    0.0000 C.3     1  UNL1        0.1327
     14 C           3.7565   -0.5992    0.0000 C.3     1  UNL1       -0.0187
     15 C           6.9156    1.1636    0.0000 C.2     1  UNL1        0.0399
     16 C           4.3858   -1.3764    0.0000 C.2     1  UNL1        0.0362
     17 C           5.3735   -1.2199    0.0000 C.2     1  UNL1       -0.0333
     18 C           6.6066    2.1146    0.0000 C.2     1  UNL1        0.3354
     19 C           5.2214   -1.9239    0.0000 C.2     1  UNL1        0.3355
     20 C           7.8667    0.8545    0.0000 C.2     1  UNL1       -0.0882
     21 H           1.7728    0.0989    0.0000 H       1  UNL1        0.0625
     22 H           4.1122    0.1996    0.0000 H       1  UNL1        0.0330
     23 H           4.2870    1.3692    0.0000 H       1  UNL1        0.0330
     24 H           4.6099    1.6632    0.0000 H       1  UNL1        0.0742
     25 H           2.1564   -0.8527    0.0000 H       1  UNL1        0.0294
     26 H           2.8658   -1.3680    0.0000 H       1  UNL1        0.0294
     27 H           6.7942    0.0761    0.0000 H       1  UNL1        0.0427
     28 H           4.2259    1.6889    0.0000 H       1  UNL1        0.0258
     29 H           3.7679    2.4365    0.0000 H       1  UNL1        0.0258
     30 H           3.0202    1.9785    0.0000 H       1  UNL1        0.0258
     31 H           5.2143   -0.0995    0.0000 H       1  UNL1        0.0787
     32 H           4.2987   -0.2987    0.0000 H       1  UNL1        0.0316
     33 H           3.5546   -0.0130    0.0000 H       1  UNL1        0.0316
     34 H           5.6876   -1.7545    0.0000 H       1  UNL1        0.0613
     35 H           7.9956    0.2481    0.0000 H       1  UNL1        0.0540
     36 H           8.3274    1.2694    0.0000 H       1  UNL1        0.0540
@<TRIPOS>BOND
     1     1     6    1
     2     1     7    1
     3     2     9    1
     4     2    18    1
     5     3    13    1
     6     3    19    1
     7     4    18    2
     8     5    19    2
     9     6     7    1
    10     6     8    1
    11     6    12    1
    12     7    10    1
    13     7    21    1
    14     8     9    1
    15     8    22    1
    16     8    23    1
    17     9    11    1
    18     9    24    1
    19    10    14    1
    20    10    25    1
    21    10    26    1
    22    11    13    1
    23    11    15    1
    24    11    27    1
    25    12    28    1
    26    12    29    1
    27    12    30    1
    28    13    17    1
    29    13    31    1
    30    14    16    1
    31    14    32    1
    32    14    33    1
    33    15    18    1
    34    15    20    2
    35    16    17    2
    36    16    19    1
    37    17    34    1
    38    20    35    1
    39    20    36    1
