@<TRIPOS>MOLECULE
IMPHY009011
 74 77 0 0 0
SMALL
GASTEIGER

@<TRIPOS>ATOM
      1 O           7.3671    2.6308    0.0000 O.3     1  UNL1       -0.4575
      2 O          10.3062    0.5401    0.0000 O.3     1  UNL1       -0.4612
      3 O          11.1510    4.9288    0.0000 O.3     1  UNL1       -0.3947
      4 O           5.9011    2.0236    0.0000 O.2     1  UNL1       -0.2448
      5 O           5.1350   -2.2352    0.0000 O.3     1  UNL1       -0.3404
      6 O           6.8671   -2.2352    0.0000 O.3     1  UNL1       -0.3059
      7 O           6.0010   -0.7352    0.0000 O.2     1  UNL1       -0.4660
      8 O          10.0243   -0.4482    0.0000 O.2     1  UNL1       -0.2456
      9 O           5.1350   -5.2352    0.0000 O.3     1  UNL1       -0.3864
     10 O           6.8671   -4.2352    0.0000 O.3     1  UNL1       -0.3841
     11 O           3.4030   -4.2352    0.0000 O.3     1  UNL1       -0.3865
     12 O           2.5369   -2.7352    0.0000 O.3     1  UNL1       -0.3924
     13 C           9.6446    2.7538    0.0000 C.3     1  UNL1       -0.0268
     14 C           9.5991    1.7648    0.0000 C.3     1  UNL1        0.0025
     15 C           9.0991    2.6308    0.0000 C.3     1  UNL1       -0.0005
     16 C           8.6882    3.0101    0.0000 C.3     1  UNL1       -0.0119
     17 C           8.2331    2.1308    0.0000 C.3     1  UNL1        0.1066
     18 C          10.4517    3.3442    0.0000 C.3     1  UNL1       -0.0173
     19 C          10.5650    1.5060    0.0000 C.3     1  UNL1        0.0962
     20 C           9.3579    3.5968    0.0000 C.3     1  UNL1       -0.0587
     21 C          10.3439    4.3384    0.0000 C.3     1  UNL1        0.0470
     22 C          11.3665    2.9404    0.0000 C.3     1  UNL1       -0.0601
     23 C           6.8671    1.7648    0.0000 C.2     1  UNL1        0.3430
     24 C           9.3403    0.2813    0.0000 C.2     1  UNL1        0.3325
     25 C           6.8671    0.7648    0.0000 C.2     1  UNL1        0.1010
     26 C           7.7331    0.2648    0.0000 C.2     1  UNL1        0.0074
     27 C           8.5991    0.7648    0.0000 C.2     1  UNL1        0.0310
     28 C           5.1350   -4.2352    0.0000 C.3     1  UNL1        0.1141
     29 C           6.0010   -3.7352    0.0000 C.3     1  UNL1        0.1343
     30 C           4.2690   -3.7352    0.0000 C.3     1  UNL1        0.1119
     31 C           6.0010   -2.7352    0.0000 C.3     1  UNL1        0.1921
     32 C           4.2690   -2.7352    0.0000 C.3     1  UNL1        0.1130
     33 C           7.7331   -0.7352    0.0000 C.2     1  UNL1        0.0243
     34 C           6.8671   -1.2352    0.0000 C.3     1  UNL1        0.2302
     35 C           6.0010    0.2648    0.0000 C.2     1  UNL1        0.1028
     36 C           3.4030   -2.2352    0.0000 C.3     1  UNL1        0.0730
     37 C           8.5991   -1.2352    0.0000 C.2     1  UNL1       -0.0774
     38 C           9.4651   -1.7352    0.0000 C.3     1  UNL1       -0.0461
     39 H           9.4883    3.5893    0.0000 H       1  UNL1        0.0309
     40 H          10.2852    2.2666    0.0000 H       1  UNL1        0.0340
     41 H           9.7138    2.7118    0.0000 H       1  UNL1        0.0338
     42 H           8.8913    3.5958    0.0000 H       1  UNL1        0.0304
     43 H           8.1186    3.2548    0.0000 H       1  UNL1        0.0304
     44 H           7.8423    1.3760    0.0000 H       1  UNL1        0.0737
     45 H          10.9521    3.7103    0.0000 H       1  UNL1        0.0323
     46 H          11.1639    1.3455    0.0000 H       1  UNL1        0.0700
     47 H          10.7255    2.1049    0.0000 H       1  UNL1        0.0700
     48 H           9.9568    3.4363    0.0000 H       1  UNL1        0.0234
     49 H           9.5184    4.1956    0.0000 H       1  UNL1        0.0234
     50 H           8.7591    3.7572    0.0000 H       1  UNL1        0.0234
     51 H          10.0703    4.8948    0.0000 H       1  UNL1        0.0560
     52 H           9.7485    4.1656    0.0000 H       1  UNL1        0.0560
     53 H          11.1162    2.3732    0.0000 H       1  UNL1        0.0233
     54 H          11.9337    2.6901    0.0000 H       1  UNL1        0.0233
     55 H          11.6169    3.5076    0.0000 H       1  UNL1        0.0233
     56 H          11.0843    5.5452    0.0000 H       1  UNL1        0.2094
     57 H           4.5981   -4.5452    0.0000 H       1  UNL1        0.0648
     58 H           6.0010   -4.3552    0.0000 H       1  UNL1        0.0671
     59 H           4.2690   -4.3552    0.0000 H       1  UNL1        0.0647
     60 H           8.6772    1.3799    0.0000 H       1  UNL1        0.0695
     61 H           6.0010   -2.1152    0.0000 H       1  UNL1        0.0939
     62 H           4.2690   -2.1152    0.0000 H       1  UNL1        0.0647
     63 H           7.4040   -1.5452    0.0000 H       1  UNL1        0.1113
     64 H           5.4641    0.5748    0.0000 H       1  UNL1        0.1033
     65 H           3.8015   -1.7602    0.0000 H       1  UNL1        0.0584
     66 H           3.0044   -1.7602    0.0000 H       1  UNL1        0.0584
     67 H           8.5991   -1.8552    0.0000 H       1  UNL1        0.0574
     68 H           4.5981   -5.5452    0.0000 H       1  UNL1        0.2100
     69 H           6.8671   -4.8552    0.0000 H       1  UNL1        0.2101
     70 H           3.4030   -4.8552    0.0000 H       1  UNL1        0.2100
     71 H           9.1551   -2.2721    0.0000 H       1  UNL1        0.0272
     72 H          10.0021   -2.0452    0.0000 H       1  UNL1        0.0272
     73 H           9.7751   -1.1982    0.0000 H       1  UNL1        0.0272
     74 H           2.0000   -2.4252    0.0000 H       1  UNL1        0.2095
@<TRIPOS>BOND
     1     1    17    1
     2     1    23    1
     3     2    19    1
     4     2    24    1
     5     3    21    1
     6     3    56    1
     7     4    23    2
     8     5    31    1
     9     5    32    1
    10    31     6    1
    11     6    34    1
    12     7    34    1
    13     7    35    1
    14     8    24    2
    15    28     9    1
    16     9    68    1
    17    29    10    1
    18    10    69    1
    19    30    11    1
    20    11    70    1
    21    12    36    1
    22    12    74    1
    23    13    14    1
    24    13    16    1
    25    13    18    1
    26    13    39    1
    27    14    15    1
    28    14    19    1
    29    14    40    1
    30    15    17    1
    31    15    20    1
    32    15    41    1
    33    16    17    1
    34    16    42    1
    35    16    43    1
    36    17    44    1
    37    18    21    1
    38    18    22    1
    39    18    45    1
    40    19    46    1
    41    19    47    1
    42    20    48    1
    43    20    49    1
    44    20    50    1
    45    21    51    1
    46    21    52    1
    47    22    53    1
    48    22    54    1
    49    22    55    1
    50    23    25    1
    51    24    27    1
    52    25    26    1
    53    25    35    2
    54    26    27    2
    55    26    33    1
    56    27    60    1
    57    28    29    1
    58    28    30    1
    59    28    57    1
    60    29    31    1
    61    29    58    1
    62    30    32    1
    63    30    59    1
    64    31    61    1
    65    32    36    1
    66    32    62    1
    67    33    34    1
    68    33    37    2
    69    34    63    1
    70    35    64    1
    71    36    65    1
    72    36    66    1
    73    37    38    1
    74    37    67    1
    75    38    71    1
    76    38    72    1
    77    38    73    1
