@<TRIPOS>MOLECULE
IMPHY008147
 45 48 0 0 0
SMALL
GASTEIGER

@<TRIPOS>ATOM
      1 O           3.9030   -1.2652    0.0000 O.3     1  UNL1       -0.3757
      2 O           8.9706   -0.4865    0.0000 O.2     1  UNL1       -0.2706
      3 O           2.8698   -0.6507    0.0000 O.3     1  UNL1       -0.4914
      4 O           2.8660    1.4018    0.0000 O.3     1  UNL1       -0.4914
      5 N           7.2787   -0.1232    0.0000 N.am    1  UNL1       -0.2838
      6 C           6.4091   -0.6252    0.0000 C.3     1  UNL1        0.0911
      7 C           5.3894   -0.8284    0.0000 C.3     1  UNL1        0.0070
      8 C           5.5395   -0.1232    0.0000 C.ar    1  UNL1       -0.0125
      9 C           6.6192   -1.6010    0.0000 C.2     1  UNL1       -0.0147
     10 C           7.2787    0.8809    0.0000 C.3     1  UNL1        0.0201
     11 C           4.8699   -1.5205    0.0000 C.3     1  UNL1        0.0793
     12 C           5.5395    0.8809    0.0000 C.ar    1  UNL1       -0.0367
     13 C           6.4091    1.3830    0.0000 C.3     1  UNL1       -0.0113
     14 C           8.0187   -0.7930    0.0000 C.2     1  UNL1        0.2407
     15 C           7.6119   -1.7046    0.0000 C.2     1  UNL1        0.0059
     16 C           6.1128   -2.2437    0.0000 C.2     1  UNL1       -0.0576
     17 C           4.9828   -2.4018    0.0000 C.2     1  UNL1       -0.0552
     18 C           4.6418   -0.6601    0.0000 C.ar    1  UNL1       -0.0105
     19 C           4.6418    1.4178    0.0000 C.ar    1  UNL1       -0.0127
     20 C           3.7320   -0.1441    0.0000 C.ar    1  UNL1        0.1618
     21 C           3.7320    0.9018    0.0000 C.ar    1  UNL1        0.1618
     22 C           3.1985   -1.9748    0.0000 C.3     1  UNL1        0.0372
     23 C           2.0000   -0.1573    0.0000 C.3     1  UNL1        0.0790
     24 C           2.8660    2.4018    0.0000 C.3     1  UNL1        0.0790
     25 H           5.4411   -0.2105    0.0000 H       1  UNL1        0.0321
     26 H           4.8100   -0.6078    0.0000 H       1  UNL1        0.0321
     27 H           7.8892    0.7733    0.0000 H       1  UNL1        0.0468
     28 H           7.4907    1.4635    0.0000 H       1  UNL1        0.0468
     29 H           5.2497   -0.9348    0.0000 H       1  UNL1        0.0641
     30 H           6.8076    1.8580    0.0000 H       1  UNL1        0.0328
     31 H           6.0106    1.8580    0.0000 H       1  UNL1        0.0328
     32 H           7.9219   -2.2415    0.0000 H       1  UNL1        0.0673
     33 H           6.4215   -2.7814    0.0000 H       1  UNL1        0.0619
     34 H           4.6066   -2.8946    0.0000 H       1  UNL1        0.0598
     35 H           4.6490   -1.2800    0.0000 H       1  UNL1        0.0659
     36 H           4.6490    2.0378    0.0000 H       1  UNL1        0.0658
     37 H           2.7585   -1.5380    0.0000 H       1  UNL1        0.0524
     38 H           2.7616   -2.4148    0.0000 H       1  UNL1        0.0524
     39 H           3.6384   -2.4116    0.0000 H       1  UNL1        0.0524
     40 H           2.3059    0.3820    0.0000 H       1  UNL1        0.0660
     41 H           1.4607    0.1485    0.0000 H       1  UNL1        0.0660
     42 H           1.6941   -0.6966    0.0000 H       1  UNL1        0.0660
     43 H           3.4860    2.4018    0.0000 H       1  UNL1        0.0660
     44 H           2.8660    3.0218    0.0000 H       1  UNL1        0.0660
     45 H           2.2460    2.4018    0.0000 H       1  UNL1        0.0660
@<TRIPOS>BOND
     1    11     1    1
     2     1    22    1
     3     2    14    2
     4     3    20    1
     5     3    23    1
     6     4    21    1
     7     4    24    1
     8     5     6    1
     9     5    10    1
    10     5    14   am
    11     6     7    1
    12     6     8    1
    13     6     9    1
    14     7    11    1
    15     7    25    1
    16     7    26    1
    17     8    12   ar
    18     8    18   ar
    19     9    15    2
    20     9    16    1
    21    10    13    1
    22    10    27    1
    23    10    28    1
    24    11    17    1
    25    11    29    1
    26    12    13    1
    27    12    19   ar
    28    13    30    1
    29    13    31    1
    30    14    15    1
    31    15    32    1
    32    16    17    2
    33    16    33    1
    34    17    34    1
    35    18    20   ar
    36    18    35    1
    37    19    21   ar
    38    19    36    1
    39    20    21   ar
    40    22    37    1
    41    22    38    1
    42    22    39    1
    43    23    40    1
    44    23    41    1
    45    23    42    1
    46    24    43    1
    47    24    44    1
    48    24    45    1
