@<TRIPOS>MOLECULE
IMPHY013387
 60 64 0 0 0
SMALL
GASTEIGER

@<TRIPOS>ATOM
      1 O           5.1350   -2.6630    0.0000 O.3     1  UNL1       -0.3313
      2 O           6.8671   -2.6630    0.0000 O.3     1  UNL1       -0.4570
      3 O           5.1350   -5.6630    0.0000 O.3     1  UNL1       -0.3864
      4 O           3.4030   -4.6630    0.0000 O.3     1  UNL1       -0.3865
      5 O           6.8671   -4.6630    0.0000 O.3     1  UNL1       -0.3829
      6 O           2.5369   -3.1630    0.0000 O.3     1  UNL1       -0.3924
      7 O           8.6230    0.3995    0.0000 O.2     1  UNL1       -0.4620
      8 O           5.0971   -1.6320    0.0000 O.3     1  UNL1       -0.4914
      9 O           9.3780    5.0637    0.0000 O.3     1  UNL1       -0.4526
     10 O           7.9873    5.8738    0.0000 O.3     1  UNL1       -0.4525
     11 O           6.0308    1.9095    0.0000 O.2     1  UNL1       -0.2864
     12 O           6.0346    2.9095    0.0000 O.3     1  UNL1       -0.4944
     13 C           5.1350   -4.6630    0.0000 C.3     1  UNL1        0.1152
     14 C           4.2690   -4.1630    0.0000 C.3     1  UNL1        0.1120
     15 C           6.0010   -4.1630    0.0000 C.3     1  UNL1        0.1454
     16 C           4.2690   -3.1630    0.0000 C.3     1  UNL1        0.1140
     17 C           6.0010   -3.1630    0.0000 C.3     1  UNL1        0.2310
     18 C           3.4030   -2.6630    0.0000 C.3     1  UNL1        0.0731
     19 C           6.8671   -1.6630    0.0000 C.ar    1  UNL1        0.1689
     20 C           5.9670   -1.1387    0.0000 C.ar    1  UNL1        0.1625
     21 C           7.7671   -1.1387    0.0000 C.ar    1  UNL1        0.0268
     22 C           7.7551   -0.0972    0.0000 C.ar    1  UNL1        0.1421
     23 C           6.8910    0.4062    0.0000 C.ar    1  UNL1        0.0682
     24 C           5.9790   -0.0972    0.0000 C.ar    1  UNL1       -0.0019
     25 C           6.8948    1.4062    0.0000 C.ar    1  UNL1        0.2004
     26 C           7.7628    1.9028    0.0000 C.ar    1  UNL1        0.0679
     27 C           7.7666    2.9028    0.0000 C.ar    1  UNL1        0.0341
     28 C           8.6269    1.3995    0.0000 C.ar    1  UNL1        0.1040
     29 C           6.9026    3.4061    0.0000 C.ar    1  UNL1        0.1317
     30 C           8.6346    3.3995    0.0000 C.ar    1  UNL1       -0.0047
     31 C           8.6384    4.3994    0.0000 C.ar    1  UNL1        0.1670
     32 C           7.7744    4.9028    0.0000 C.ar    1  UNL1        0.1697
     33 C           6.9064    4.4061    0.0000 C.ar    1  UNL1        0.0262
     34 C           4.2350   -1.1254    0.0000 C.3     1  UNL1        0.0790
     35 C           8.9764    5.9730    0.0000 C.3     1  UNL1        0.2332
     36 C           5.1705    3.4128    0.0000 C.3     1  UNL1        0.0788
     37 H           4.5981   -4.9730    0.0000 H       1  UNL1        0.0648
     38 H           4.2690   -4.7830    0.0000 H       1  UNL1        0.0647
     39 H           6.0010   -4.7830    0.0000 H       1  UNL1        0.0683
     40 H           4.2690   -2.5430    0.0000 H       1  UNL1        0.0647
     41 H           6.0010   -2.5430    0.0000 H       1  UNL1        0.1084
     42 H           3.8015   -2.1881    0.0000 H       1  UNL1        0.0584
     43 H           3.0044   -2.1881    0.0000 H       1  UNL1        0.0584
     44 H           4.5981   -5.9730    0.0000 H       1  UNL1        0.2100
     45 H           3.4030   -5.2830    0.0000 H       1  UNL1        0.2100
     46 H           6.8671   -5.2830    0.0000 H       1  UNL1        0.2102
     47 H           2.0000   -2.8530    0.0000 H       1  UNL1        0.2095
     48 H           8.3064   -1.4446    0.0000 H       1  UNL1        0.0692
     49 H           5.4470    0.2211    0.0000 H       1  UNL1        0.0663
     50 H           9.1650    1.7074    0.0000 H       1  UNL1        0.1037
     51 H           9.1703    3.0874    0.0000 H       1  UNL1        0.0663
     52 H           6.3707    4.7182    0.0000 H       1  UNL1        0.0692
     53 H           4.5491   -0.5909    0.0000 H       1  UNL1        0.0660
     54 H           3.7005   -0.8113    0.0000 H       1  UNL1        0.0660
     55 H           3.9209   -1.6599    0.0000 H       1  UNL1        0.0660
     56 H           9.5668    6.1625    0.0000 H       1  UNL1        0.1166
     57 H           8.8500    6.5800    0.0000 H       1  UNL1        0.1166
     58 H           5.4826    3.9486    0.0000 H       1  UNL1        0.0660
     59 H           4.6348    3.7249    0.0000 H       1  UNL1        0.0660
     60 H           4.8585    2.8771    0.0000 H       1  UNL1        0.0660
@<TRIPOS>BOND
     1     1    16    1
     2     1    17    1
     3    17     2    1
     4     2    19    1
     5    13     3    1
     6     3    44    1
     7    14     4    1
     8     4    45    1
     9     5    15    1
    10     5    46    1
    11     6    18    1
    12     6    47    1
    13     7    22   ar
    14     7    28   ar
    15     8    20    1
    16     8    34    1
    17     9    31    1
    18     9    35    1
    19    10    32    1
    20    10    35    1
    21    11    25    2
    22    12    29    1
    23    12    36    1
    24    13    14    1
    25    13    15    1
    26    13    37    1
    27    14    16    1
    28    14    38    1
    29    15    17    1
    30    15    39    1
    31    16    18    1
    32    16    40    1
    33    17    41    1
    34    18    42    1
    35    18    43    1
    36    19    20   ar
    37    19    21   ar
    38    20    24   ar
    39    21    22   ar
    40    21    48    1
    41    22    23   ar
    42    23    24   ar
    43    23    25   ar
    44    24    49    1
    45    25    26   ar
    46    26    27    1
    47    26    28   ar
    48    27    29   ar
    49    27    30   ar
    50    28    50    1
    51    29    33   ar
    52    30    31   ar
    53    30    51    1
    54    31    32   ar
    55    32    33   ar
    56    33    52    1
    57    34    53    1
    58    34    54    1
    59    34    55    1
    60    35    56    1
    61    35    57    1
    62    36    58    1
    63    36    59    1
    64    36    60    1
