@<TRIPOS>MOLECULE
IMPHY015476
 27 26 0 0 0
SMALL
GASTEIGER

@<TRIPOS>ATOM
      1 O           4.5981    0.7500    0.0000 O.3     1  UNL1       -0.4605
      2 O           5.4641   -0.7500    0.0000 O.2     1  UNL1       -0.2508
      3 C           8.0622    0.7500    0.0000 C.3     1  UNL1       -0.0528
      4 C           7.1962    0.2500    0.0000 C.3     1  UNL1       -0.0430
      5 C           8.9282    0.2500    0.0000 C.3     1  UNL1       -0.0559
      6 C           6.3301    0.7500    0.0000 C.3     1  UNL1        0.0449
      7 C           9.7942    0.7500    0.0000 C.3     1  UNL1       -0.0653
      8 C           5.4641    0.2500    0.0000 C.2     1  UNL1        0.3074
      9 C           3.7320    0.2500    0.0000 C.3     1  UNL1        0.1104
     10 C           2.8660    0.7500    0.0000 C.2     1  UNL1       -0.0541
     11 C           2.0000    0.2500    0.0000 C.2     1  UNL1       -0.0995
     12 H           8.4607    1.2250    0.0000 H       1  UNL1        0.0265
     13 H           7.6636    1.2250    0.0000 H       1  UNL1        0.0265
     14 H           6.7976   -0.2249    0.0000 H       1  UNL1        0.0270
     15 H           7.5947   -0.2249    0.0000 H       1  UNL1        0.0270
     16 H           8.5297   -0.2249    0.0000 H       1  UNL1        0.0263
     17 H           9.3267   -0.2249    0.0000 H       1  UNL1        0.0263
     18 H           6.7287    1.2250    0.0000 H       1  UNL1        0.0377
     19 H           5.9316    1.2250    0.0000 H       1  UNL1        0.0377
     20 H          10.1042    0.2131    0.0000 H       1  UNL1        0.0230
     21 H          10.3312    1.0600    0.0000 H       1  UNL1        0.0230
     22 H           9.4842    1.2869    0.0000 H       1  UNL1        0.0230
     23 H           3.3335   -0.2249    0.0000 H       1  UNL1        0.0742
     24 H           4.1306   -0.2249    0.0000 H       1  UNL1        0.0742
     25 H           2.8660    1.3700    0.0000 H       1  UNL1        0.0600
     26 H           1.4631    0.5600    0.0000 H       1  UNL1        0.0533
     27 H           2.0000   -0.3700    0.0000 H       1  UNL1        0.0533
@<TRIPOS>BOND
     1     1     8    1
     2     1     9    1
     3     2     8    2
     4     3     4    1
     5     3     5    1
     6     3    12    1
     7     3    13    1
     8     4     6    1
     9     4    14    1
    10     4    15    1
    11     5     7    1
    12     5    16    1
    13     5    17    1
    14     6     8    1
    15     6    18    1
    16     6    19    1
    17     7    20    1
    18     7    21    1
    19     7    22    1
    20     9    10    1
    21     9    23    1
    22     9    24    1
    23    10    11    2
    24    10    25    1
    25    11    26    1
    26    11    27    1
