@<TRIPOS>MOLECULE
IMPHY006431
 53 56 0 0 0
SMALL
GASTEIGER

@<TRIPOS>ATOM
      1 O           6.0771    3.5692    0.0000 O.3     1  UNL1       -0.3843
      2 O           2.2943    1.0264    0.0000 O.3     1  UNL1       -0.4802
      3 O           6.9005   -0.9947    0.0000 O.3     1  UNL1       -0.4804
      4 O           3.3229    1.9970    0.0000 O.2     1  UNL1       -0.2504
      5 O           5.7014   -2.2445    0.0000 O.2     1  UNL1       -0.2507
      6 O           2.8183   -3.1320    0.0000 O.3     1  UNL1       -0.4802
      7 O           4.5500   -3.1623    0.0000 O.2     1  UNL1       -0.2504
      8 C           5.3546    0.4036    0.0000 C.3     1  UNL1       -0.0056
      9 C           4.4536    0.8375    0.0000 C.3     1  UNL1       -0.0181
     10 C           3.7685    0.1172    0.0000 C.3     1  UNL1        0.0755
     11 C           4.2403   -0.7578    0.0000 C.3     1  UNL1        0.0039
     12 C           5.2186   -0.5811    0.0000 C.3     1  UNL1        0.0674
     13 C           5.2477    1.5804    0.0000 C.3     1  UNL1       -0.0131
     14 C           5.8546    2.5942    0.0000 C.3     1  UNL1        0.0874
     15 C           6.2555    0.8375    0.0000 C.3     1  UNL1       -0.0225
     16 C           4.2311    1.8124    0.0000 C.3     1  UNL1       -0.0457
     17 C           3.7104   -1.6474    0.0000 C.3     1  UNL1        0.0694
     18 C           2.7340    0.1632    0.0000 C.3     1  UNL1       -0.0366
     19 C           4.8546    2.5942    0.0000 C.3     1  UNL1       -0.0198
     20 C           6.4780    1.8124    0.0000 C.2     1  UNL1       -0.0449
     21 C           2.6752   -1.6253    0.0000 C.3     1  UNL1       -0.0372
     22 C           2.1837   -0.7139    0.0000 C.3     1  UNL1       -0.0510
     23 C           3.2938    0.9974    0.0000 C.2     1  UNL1        0.3115
     24 C           5.9402   -1.2734    0.0000 C.2     1  UNL1        0.3087
     25 C           4.5675   -2.1625    0.0000 C.3     1  UNL1       -0.0491
     26 C           3.6929   -2.6472    0.0000 C.2     1  UNL1        0.3110
     27 C           7.4530    2.0349    0.0000 C.2     1  UNL1       -0.0967
     28 H           3.6878    1.2063    0.0000 H       1  UNL1        0.0317
     29 H           4.7245   -1.4564    0.0000 H       1  UNL1        0.0330
     30 H           5.8042   -0.3776    0.0000 H       1  UNL1        0.0422
     31 H           4.8399    2.0474    0.0000 H       1  UNL1        0.0302
     32 H           4.6777    1.3365    0.0000 H       1  UNL1        0.0302
     33 H           6.3935    0.2330    0.0000 H       1  UNL1        0.0316
     34 H           6.8755    0.8375    0.0000 H       1  UNL1        0.0316
     35 H           3.8445    2.2971    0.0000 H       1  UNL1        0.0269
     36 H           3.6725    1.5434    0.0000 H       1  UNL1        0.0269
     37 H           2.8672    0.7688    0.0000 H       1  UNL1        0.0276
     38 H           2.1602    0.3980    0.0000 H       1  UNL1        0.0276
     39 H           4.9925    3.1987    0.0000 H       1  UNL1        0.0296
     40 H           4.2960    2.8632    0.0000 H       1  UNL1        0.0296
     41 H           2.0871   -1.8218    0.0000 H       1  UNL1        0.0276
     42 H           2.7682   -2.2383    0.0000 H       1  UNL1        0.0276
     43 H           1.7226   -0.2994    0.0000 H       1  UNL1        0.0266
     44 H           1.6964   -1.0972    0.0000 H       1  UNL1        0.0266
     45 H           4.2482   -2.6939    0.0000 H       1  UNL1        0.0240
     46 H           5.0990   -2.4818    0.0000 H       1  UNL1        0.0240
     47 H           4.8869   -1.6310    0.0000 H       1  UNL1        0.0240
     48 H           6.6695    3.7519    0.0000 H       1  UNL1        0.2106
     49 H           7.8747    1.5804    0.0000 H       1  UNL1        0.0535
     50 H           7.6357    2.6274    0.0000 H       1  UNL1        0.0535
     51 H           2.0000    1.5721    0.0000 H       1  UNL1        0.2951
     52 H           7.3479   -1.4239    0.0000 H       1  UNL1        0.2951
     53 H           2.8074   -3.7519    0.0000 H       1  UNL1        0.2951
@<TRIPOS>BOND
     1    14     1    1
     2     1    48    1
     3     2    23    1
     4     2    51    1
     5     3    24    1
     6     3    52    1
     7     4    23    2
     8     5    24    2
     9     6    26    1
    10     6    53    1
    11     7    26    2
    12     8     9    1
    13     8    12    1
    14     8    13    1
    15     8    15    1
    16     9    10    1
    17     9    16    1
    18     9    28    1
    19    10    11    1
    20    10    18    1
    21    10    23    1
    22    11    12    1
    23    11    17    1
    24    11    29    1
    25    12    24    1
    26    12    30    1
    27    13    14    1
    28    13    31    1
    29    13    32    1
    30    14    19    1
    31    14    20    1
    32    15    20    1
    33    15    33    1
    34    15    34    1
    35    16    19    1
    36    16    35    1
    37    16    36    1
    38    17    21    1
    39    17    25    1
    40    17    26    1
    41    18    22    1
    42    18    37    1
    43    18    38    1
    44    19    39    1
    45    19    40    1
    46    20    27    2
    47    21    22    1
    48    21    41    1
    49    21    42    1
    50    22    43    1
    51    22    44    1
    52    25    45    1
    53    25    46    1
    54    25    47    1
    55    27    49    1
    56    27    50    1
