@<TRIPOS>MOLECULE
IMPHY009918
 75 79 0 0 0
SMALL
GASTEIGER

@<TRIPOS>ATOM
      1 O           6.8671   -1.7787    0.0000 O.3     1  UNL1       -0.3313
      2 O           4.2690   -4.2787    0.0000 O.3     1  UNL1       -0.3431
      3 O           6.0010   -4.2787    0.0000 O.3     1  UNL1       -0.3461
      4 O           7.7331   -4.2787    0.0000 O.3     1  UNL1       -0.3865
      5 O           9.4651   -3.2787    0.0000 O.3     1  UNL1       -0.3864
      6 O           7.7331   -0.2787    0.0000 O.3     1  UNL1       -0.4606
      7 O           9.4651   -1.2787    0.0000 O.3     1  UNL1       -0.3829
      8 O           6.0010   -6.2787    0.0000 O.3     1  UNL1       -0.3841
      9 O           4.2690   -7.2787    0.0000 O.3     1  UNL1       -0.3864
     10 O           2.5369   -6.2787    0.0000 O.3     1  UNL1       -0.3866
     11 O           5.9589    2.7733    0.0000 O.2     1  UNL1       -0.4544
     12 O           4.1934   -0.2514    0.0000 O.3     1  UNL1       -0.5058
     13 O           3.3550    1.2833    0.0000 O.2     1  UNL1       -0.2869
     14 O           6.8384    6.2699    0.0000 O.3     1  UNL1       -0.4914
     15 O           5.1102    7.2766    0.0000 O.3     1  UNL1       -0.5033
     16 C           6.8671   -2.7787    0.0000 C.3     1  UNL1        0.1144
     17 C           7.7331   -3.2787    0.0000 C.3     1  UNL1        0.1120
     18 C           8.5991   -2.7787    0.0000 C.3     1  UNL1        0.1152
     19 C           8.5991   -1.7787    0.0000 C.3     1  UNL1        0.1454
     20 C           5.1350   -5.7787    0.0000 C.3     1  UNL1        0.1341
     21 C           5.1350   -4.7787    0.0000 C.3     1  UNL1        0.1879
     22 C           4.2690   -6.2787    0.0000 C.3     1  UNL1        0.1140
     23 C           3.4030   -5.7787    0.0000 C.3     1  UNL1        0.1095
     24 C           7.7331   -1.2787    0.0000 C.3     1  UNL1        0.2308
     25 C           3.4030   -4.7787    0.0000 C.3     1  UNL1        0.0873
     26 C           6.0010   -3.2787    0.0000 C.3     1  UNL1        0.0796
     27 C           2.5369   -4.2787    0.0000 C.3     1  UNL1       -0.0361
     28 C           6.8671    0.2213    0.0000 C.ar    1  UNL1        0.1310
     29 C           6.8630    1.2630    0.0000 C.ar    1  UNL1        0.0235
     30 C           5.9630   -0.2960    0.0000 C.ar    1  UNL1        0.0226
     31 C           5.9550    1.7733    0.0000 C.ar    1  UNL1        0.1462
     32 C           5.0670    0.2352    0.0000 C.ar    1  UNL1        0.1347
     33 C           5.0871    1.2766    0.0000 C.ar    1  UNL1        0.1055
     34 C           4.2230    1.7800    0.0000 C.ar    1  UNL1        0.1966
     35 C           5.0948    3.2766    0.0000 C.ar    1  UNL1        0.1393
     36 C           4.2268    2.7800    0.0000 C.ar    1  UNL1        0.0288
     37 C           5.0986    4.2766    0.0000 C.ar    1  UNL1        0.0211
     38 C           5.9666    4.7733    0.0000 C.ar    1  UNL1       -0.0057
     39 C           4.2345    4.7800    0.0000 C.ar    1  UNL1       -0.0474
     40 C           5.9704    5.7733    0.0000 C.ar    1  UNL1        0.1619
     41 C           4.2384    5.7800    0.0000 C.ar    1  UNL1       -0.0159
     42 C           5.1063    6.2766    0.0000 C.ar    1  UNL1        0.1585
     43 C           6.8422    7.2699    0.0000 C.3     1  UNL1        0.0790
     44 H           6.3301   -2.4687    0.0000 H       1  UNL1        0.0647
     45 H           8.2700   -3.5887    0.0000 H       1  UNL1        0.0647
     46 H           9.1360   -2.4687    0.0000 H       1  UNL1        0.0648
     47 H           8.5991   -1.1587    0.0000 H       1  UNL1        0.0683
     48 H           5.1350   -6.3987    0.0000 H       1  UNL1        0.0671
     49 H           5.1350   -4.1587    0.0000 H       1  UNL1        0.0937
     50 H           3.7320   -6.5887    0.0000 H       1  UNL1        0.0648
     51 H           3.4030   -6.3987    0.0000 H       1  UNL1        0.0646
     52 H           7.1962   -0.9687    0.0000 H       1  UNL1        0.1084
     53 H           3.4030   -4.1587    0.0000 H       1  UNL1        0.0621
     54 H           5.7890   -2.6961    0.0000 H       1  UNL1        0.0587
     55 H           5.3905   -3.3863    0.0000 H       1  UNL1        0.0587
     56 H           2.8469   -3.7417    0.0000 H       1  UNL1        0.0255
     57 H           2.0000   -3.9687    0.0000 H       1  UNL1        0.0255
     58 H           2.2269   -4.8156    0.0000 H       1  UNL1        0.0255
     59 H           8.2700   -4.5887    0.0000 H       1  UNL1        0.2100
     60 H          10.0021   -2.9687    0.0000 H       1  UNL1        0.2100
     61 H           9.4651   -0.6587    0.0000 H       1  UNL1        0.2102
     62 H           6.5380   -5.9687    0.0000 H       1  UNL1        0.2101
     63 H           3.7320   -7.5887    0.0000 H       1  UNL1        0.2100
     64 H           2.0000   -5.9687    0.0000 H       1  UNL1        0.2100
     65 H           7.3976    1.5771    0.0000 H       1  UNL1        0.0691
     66 H           5.9582   -0.9160    0.0000 H       1  UNL1        0.0691
     67 H           3.6911    3.0920    0.0000 H       1  UNL1        0.0693
     68 H           4.1838   -0.8713    0.0000 H       1  UNL1        0.2922
     69 H           6.5023    4.4612    0.0000 H       1  UNL1        0.0662
     70 H           3.6964    4.4720    0.0000 H       1  UNL1        0.0626
     71 H           3.7026    6.0920    0.0000 H       1  UNL1        0.0655
     72 H           4.5744    7.5887    0.0000 H       1  UNL1        0.2923
     73 H           7.4622    7.2675    0.0000 H       1  UNL1        0.0660
     74 H           6.8446    7.8899    0.0000 H       1  UNL1        0.0660
     75 H           6.2222    7.2723    0.0000 H       1  UNL1        0.0660
@<TRIPOS>BOND
     1     1    16    1
     2     1    24    1
     3     2    21    1
     4     2    25    1
     5     3    21    1
     6     3    26    1
     7     4    17    1
     8     4    59    1
     9     5    18    1
    10     5    60    1
    11     6    24    1
    12     6    28    1
    13     7    19    1
    14     7    61    1
    15     8    20    1
    16     8    62    1
    17     9    22    1
    18     9    63    1
    19    10    23    1
    20    10    64    1
    21    11    31   ar
    22    11    35   ar
    23    12    32    1
    24    12    68    1
    25    13    34    2
    26    14    40    1
    27    14    43    1
    28    15    42    1
    29    15    72    1
    30    16    17    1
    31    16    26    1
    32    16    44    1
    33    17    18    1
    34    17    45    1
    35    18    19    1
    36    18    46    1
    37    19    24    1
    38    19    47    1
    39    20    21    1
    40    20    22    1
    41    20    48    1
    42    21    49    1
    43    22    23    1
    44    22    50    1
    45    23    25    1
    46    23    51    1
    47    24    52    1
    48    25    27    1
    49    25    53    1
    50    26    54    1
    51    26    55    1
    52    27    56    1
    53    27    57    1
    54    27    58    1
    55    28    29   ar
    56    28    30   ar
    57    29    31   ar
    58    29    65    1
    59    30    32   ar
    60    30    66    1
    61    31    33   ar
    62    32    33   ar
    63    33    34   ar
    64    34    36   ar
    65    35    36   ar
    66    35    37    1
    67    36    67    1
    68    37    38   ar
    69    37    39   ar
    70    38    40   ar
    71    38    69    1
    72    39    41   ar
    73    39    70    1
    74    40    42   ar
    75    41    42   ar
    76    41    71    1
    77    43    73    1
    78    43    74    1
    79    43    75    1
