@<TRIPOS>MOLECULE
IMPHY010164
 122 128 0 0 0
SMALL
GASTEIGER

@<TRIPOS>ATOM
      1 O           8.2902    2.6557    0.0000 O.3     1  UNL1       -0.3448
      2 O           6.7611    3.8876    0.0000 O.3     1  UNL1       -0.3515
      3 O           6.8671   -5.5884    0.0000 O.3     1  UNL1       -0.3454
      4 O           5.1350   -5.5884    0.0000 O.3     1  UNL1       -0.3405
      5 O          10.9247    5.7550    0.0000 O.3     1  UNL1       -0.3484
      6 O           6.8671   -7.5884    0.0000 O.3     1  UNL1       -0.3841
      7 O           5.1350   -8.5884    0.0000 O.3     1  UNL1       -0.3864
      8 O           3.4030   -7.5884    0.0000 O.3     1  UNL1       -0.3865
      9 O          12.4221    6.6255    0.0000 O.3     1  UNL1       -0.3405
     10 O           2.5369   -6.0884    0.0000 O.3     1  UNL1       -0.3924
     11 O          11.9298    4.0260    0.0000 O.3     1  UNL1       -0.3841
     12 O          13.9298    4.0319    0.0000 O.3     1  UNL1       -0.3864
     13 O          14.9247    5.7670    0.0000 O.3     1  UNL1       -0.3865
     14 O          13.4169    8.3605    0.0000 O.3     1  UNL1       -0.3924
     15 C           6.8963    0.6085    0.0000 C.3     1  UNL1       -0.0233
     16 C           7.7643    0.1118    0.0000 C.3     1  UNL1       -0.0298
     17 C           7.7681   -0.8882    0.0000 C.3     1  UNL1       -0.0343
     18 C           7.1018    1.5811    0.0000 C.3     1  UNL1       -0.0015
     19 C           6.9040   -1.3915    0.0000 C.3     1  UNL1       -0.0323
     20 C           6.8920   -2.4331    0.0000 C.3     1  UNL1       -0.0260
     21 C           8.0901    1.6880    0.0000 C.3     1  UNL1        0.0660
     22 C           8.4987    0.7817    0.0000 C.3     1  UNL1       -0.0226
     23 C           6.0322    0.1051    0.0000 C.3     1  UNL1       -0.0467
     24 C           6.0361   -0.8949    0.0000 C.3     1  UNL1       -0.0489
     25 C           6.6995    2.4837    0.0000 C.3     1  UNL1        0.0160
     26 C           7.7920   -2.9574    0.0000 C.3     1  UNL1       -0.0330
     27 C           8.6801   -1.3915    0.0000 C.3     1  UNL1       -0.0494
     28 C           8.6921   -2.4331    0.0000 C.3     1  UNL1       -0.0494
     29 C           7.4324    3.1465    0.0000 C.3     1  UNL1        0.1728
     30 C           6.0284    1.1051    0.0000 C.3     1  UNL1       -0.0590
     31 C           5.9421   -2.9574    0.0000 C.3     1  UNL1       -0.0448
     32 C           7.8046   -4.0423    0.0000 C.3     1  UNL1       -0.0232
     33 C           6.0279   -1.9297    0.0000 C.3     1  UNL1       -0.0590
     34 C           5.9295   -4.0423    0.0000 C.3     1  UNL1       -0.0260
     35 C           6.8671   -4.5884    0.0000 C.3     1  UNL1        0.0621
     36 C           5.7211    2.6904    0.0000 C.3     1  UNL1       -0.0572
     37 C           7.9299    4.0140    0.0000 C.3     1  UNL1        0.0020
     38 C           8.9299    4.0170    0.0000 C.3     1  UNL1       -0.0435
     39 C           7.0673    4.8396    0.0000 C.3     1  UNL1        0.0397
     40 C           9.4273    4.8845    0.0000 C.3     1  UNL1       -0.0201
     41 C           6.0010   -6.0884    0.0000 C.3     1  UNL1        0.1882
     42 C           6.0010   -7.0884    0.0000 C.3     1  UNL1        0.1341
     43 C          10.4273    4.8875    0.0000 C.3     1  UNL1        0.0533
     44 C           8.9247    5.7490    0.0000 C.3     1  UNL1       -0.0603
     45 C           5.1350   -7.5884    0.0000 C.3     1  UNL1        0.1141
     46 C           4.2690   -6.0884    0.0000 C.3     1  UNL1        0.1130
     47 C           4.2690   -7.0884    0.0000 C.3     1  UNL1        0.1119
     48 C           3.4030   -5.5884    0.0000 C.3     1  UNL1        0.0730
     49 C          11.9247    5.7580    0.0000 C.3     1  UNL1        0.1879
     50 C          12.4273    4.8935    0.0000 C.3     1  UNL1        0.1341
     51 C          13.4272    4.8965    0.0000 C.3     1  UNL1        0.1141
     52 C          13.4221    6.6285    0.0000 C.3     1  UNL1        0.1130
     53 C          13.9247    5.7640    0.0000 C.3     1  UNL1        0.1119
     54 C          13.9195    7.4960    0.0000 C.3     1  UNL1        0.0730
     55 H           8.5426   -0.2299    0.0000 H       1  UNL1        0.0310
     56 H           8.4993   -0.4547    0.0000 H       1  UNL1        0.0306
     57 H           6.2565    1.4915    0.0000 H       1  UNL1        0.0335
     58 H           7.6385   -1.8194    0.0000 H       1  UNL1        0.0309
     59 H           8.9350    1.7812    0.0000 H       1  UNL1        0.0600
     60 H           8.8661    0.2823    0.0000 H       1  UNL1        0.0293
     61 H           9.0340    1.0946    0.0000 H       1  UNL1        0.0293
     62 H           5.8179    0.6869    0.0000 H       1  UNL1        0.0271
     63 H           5.4221   -0.0049    0.0000 H       1  UNL1        0.0271
     64 H           5.4251   -0.7895    0.0000 H       1  UNL1        0.0268
     65 H           5.8263   -1.4783    0.0000 H       1  UNL1        0.0268
     66 H           6.3097    2.0015    0.0000 H       1  UNL1        0.0354
     67 H           8.5314   -3.3767    0.0000 H       1  UNL1        0.0307
     68 H           9.2921   -1.4905    0.0000 H       1  UNL1        0.0268
     69 H           8.8824   -0.8054    0.0000 H       1  UNL1        0.0268
     70 H           8.9079   -3.0143    0.0000 H       1  UNL1        0.0268
     71 H           9.3017   -2.3199    0.0000 H       1  UNL1        0.0268
     72 H           6.3363    1.6433    0.0000 H       1  UNL1        0.0235
     73 H           5.4902    1.4131    0.0000 H       1  UNL1        0.0235
     74 H           5.7204    0.5670    0.0000 H       1  UNL1        0.0235
     75 H           5.7398   -2.3713    0.0000 H       1  UNL1        0.0271
     76 H           5.3300   -3.0564    0.0000 H       1  UNL1        0.0271
     77 H           8.0204   -4.6235    0.0000 H       1  UNL1        0.0293
     78 H           8.4142   -3.9291    0.0000 H       1  UNL1        0.0293
     79 H           6.3400   -1.3940    0.0000 H       1  UNL1        0.0235
     80 H           5.4922   -1.6177    0.0000 H       1  UNL1        0.0235
     81 H           5.7158   -2.4655    0.0000 H       1  UNL1        0.0235
     82 H           5.3199   -3.9291    0.0000 H       1  UNL1        0.0290
     83 H           5.7137   -4.6235    0.0000 H       1  UNL1        0.0290
     84 H           7.4046   -4.8974    0.0000 H       1  UNL1        0.0597
     85 H           5.8492    3.2970    0.0000 H       1  UNL1        0.0234
     86 H           5.1145    2.8185    0.0000 H       1  UNL1        0.0234
     87 H           5.5929    2.0838    0.0000 H       1  UNL1        0.0234
     88 H           8.0357    4.6249    0.0000 H       1  UNL1        0.0317
     89 H           7.3466    4.2243    0.0000 H       1  UNL1        0.0317
     90 H           8.8240    3.4061    0.0000 H       1  UNL1        0.0270
     91 H           9.5131    3.8067    0.0000 H       1  UNL1        0.0270
     92 H           7.6575    4.6498    0.0000 H       1  UNL1        0.0525
     93 H           7.2571    5.4298    0.0000 H       1  UNL1        0.0525
     94 H           6.4770    5.0294    0.0000 H       1  UNL1        0.0525
     95 H           8.8073    4.8826    0.0000 H       1  UNL1        0.0320
     96 H           6.0010   -5.4684    0.0000 H       1  UNL1        0.0937
     97 H           6.0010   -7.7084    0.0000 H       1  UNL1        0.0671
     98 H          10.3214    4.2766    0.0000 H       1  UNL1        0.0563
     99 H          11.0105    4.6772    0.0000 H       1  UNL1        0.0563
    100 H           9.4607    6.0606    0.0000 H       1  UNL1        0.0233
    101 H           8.6131    6.2850    0.0000 H       1  UNL1        0.0233
    102 H           8.3887    5.4374    0.0000 H       1  UNL1        0.0233
    103 H           4.5981   -7.8984    0.0000 H       1  UNL1        0.0648
    104 H           4.2690   -5.4684    0.0000 H       1  UNL1        0.0647
    105 H           3.7320   -6.7784    0.0000 H       1  UNL1        0.0647
    106 H           6.8671   -8.2084    0.0000 H       1  UNL1        0.2101
    107 H           3.8015   -5.1134    0.0000 H       1  UNL1        0.0584
    108 H           3.0044   -5.1134    0.0000 H       1  UNL1        0.0584
    109 H          11.6131    6.2940    0.0000 H       1  UNL1        0.0937
    110 H           4.5981   -8.8984    0.0000 H       1  UNL1        0.2100
    111 H           3.4030   -8.2084    0.0000 H       1  UNL1        0.2100
    112 H          12.7389    4.3575    0.0000 H       1  UNL1        0.0671
    113 H           2.0000   -5.7784    0.0000 H       1  UNL1        0.2095
    114 H          14.0472    4.8983    0.0000 H       1  UNL1        0.0648
    115 H          13.1105    7.1645    0.0000 H       1  UNL1        0.0647
    116 H          14.2331    6.3018    0.0000 H       1  UNL1        0.0647
    117 H          12.2414    3.4899    0.0000 H       1  UNL1        0.2101
    118 H          14.3956    7.0989    0.0000 H       1  UNL1        0.0584
    119 H          14.3932    7.8960    0.0000 H       1  UNL1        0.0584
    120 H          14.5498    4.0338    0.0000 H       1  UNL1        0.2100
    121 H          15.2330    6.3048    0.0000 H       1  UNL1        0.2100
    122 H          13.7253    8.8984    0.0000 H       1  UNL1        0.2095
@<TRIPOS>BOND
     1     1    21    1
     2     1    29    1
     3    29     2    1
     4     2    39    1
     5    35     3    1
     6    41     3    1
     7     4    41    1
     8     4    46    1
     9     5    43    1
    10    49     5    1
    11    42     6    1
    12     6   106    1
    13    45     7    1
    14     7   110    1
    15    47     8    1
    16     8   111    1
    17     9    49    1
    18     9    52    1
    19    10    48    1
    20    10   113    1
    21    50    11    1
    22    11   117    1
    23    51    12    1
    24    12   120    1
    25    53    13    1
    26    13   121    1
    27    14    54    1
    28    14   122    1
    29    15    16    1
    30    15    18    1
    31    15    23    1
    32    15    30    1
    33    16    17    1
    34    16    22    1
    35    16    55    1
    36    17    19    1
    37    17    27    1
    38    17    56    1
    39    18    21    1
    40    18    25    1
    41    18    57    1
    42    19    20    1
    43    19    24    1
    44    19    58    1
    45    20    26    1
    46    20    31    1
    47    20    33    1
    48    21    22    1
    49    21    59    1
    50    22    60    1
    51    22    61    1
    52    23    24    1
    53    23    62    1
    54    23    63    1
    55    24    64    1
    56    24    65    1
    57    25    29    1
    58    25    36    1
    59    25    66    1
    60    26    28    1
    61    26    32    1
    62    26    67    1
    63    27    28    1
    64    27    68    1
    65    27    69    1
    66    28    70    1
    67    28    71    1
    68    29    37    1
    69    30    72    1
    70    30    73    1
    71    30    74    1
    72    31    34    1
    73    31    75    1
    74    31    76    1
    75    32    35    1
    76    32    77    1
    77    32    78    1
    78    33    79    1
    79    33    80    1
    80    33    81    1
    81    34    35    1
    82    34    82    1
    83    34    83    1
    84    35    84    1
    85    36    85    1
    86    36    86    1
    87    36    87    1
    88    37    38    1
    89    37    88    1
    90    37    89    1
    91    38    40    1
    92    38    90    1
    93    38    91    1
    94    39    92    1
    95    39    93    1
    96    39    94    1
    97    40    43    1
    98    40    44    1
    99    40    95    1
   100    41    42    1
   101    41    96    1
   102    42    45    1
   103    42    97    1
   104    43    98    1
   105    43    99    1
   106    44   100    1
   107    44   101    1
   108    44   102    1
   109    45    47    1
   110    45   103    1
   111    46    47    1
   112    46    48    1
   113    46   104    1
   114    47   105    1
   115    48   107    1
   116    48   108    1
   117    49    50    1
   118    49   109    1
   119    50    51    1
   120    50   112    1
   121    51    53    1
   122    51   114    1
   123    52    53    1
   124    52    54    1
   125    52   115    1
   126    53   116    1
   127    54   118    1
   128    54   119    1
