@<TRIPOS>MOLECULE
IMPHY009169
 43 47 0 0 0
SMALL
GASTEIGER

@<TRIPOS>ATOM
      1 O           2.8449   -0.1984    0.0000 O.3     1  UNL1       -0.3853
      2 O           7.3092    1.5420    0.0000 O.3     1  UNL1       -0.4520
      3 O           7.3092    3.1514    0.0000 O.3     1  UNL1       -0.4526
      4 O           5.5501   -2.8500    0.0000 O.3     1  UNL1       -0.4951
      5 N           2.8816    1.8681    0.0000 N.3     1  UNL1       -0.2956
      6 C           3.7209    1.3398    0.0000 C.3     1  UNL1        0.0666
      7 C           4.6309    1.8467    0.0000 C.ar    1  UNL1       -0.0128
      8 C           3.7129    0.2982    0.0000 C.3     1  UNL1        0.1004
      9 C           4.6309    2.8467    0.0000 C.ar    1  UNL1       -0.0371
     10 C           5.4969    1.3467    0.0000 C.ar    1  UNL1        0.0330
     11 C           2.9072    2.8594    0.0000 C.3     1  UNL1        0.0033
     12 C           3.7727    3.3436    0.0000 C.3     1  UNL1       -0.0144
     13 C           4.6149   -0.2226    0.0000 C.ar    1  UNL1       -0.0061
     14 C           5.5130    0.3052    0.0000 C.ar    1  UNL1       -0.0080
     15 C           6.3629    1.8467    0.0000 C.ar    1  UNL1        0.1742
     16 C           5.4969    3.3467    0.0000 C.ar    1  UNL1       -0.0126
     17 C           6.3629    2.8467    0.0000 C.ar    1  UNL1        0.1671
     18 C           2.0000    1.3960    0.0000 C.3     1  UNL1       -0.0121
     19 C           4.6066   -1.3075    0.0000 C.ar    1  UNL1       -0.0137
     20 C           6.4649   -0.2154    0.0000 C.ar    1  UNL1       -0.0501
     21 C           5.5462   -1.8500    0.0000 C.ar    1  UNL1        0.1205
     22 C           6.4816   -1.3003    0.0000 C.ar    1  UNL1       -0.0194
     23 C           7.8928    2.3467    0.0000 C.3     1  UNL1        0.2333
     24 C           6.4180   -3.3467    0.0000 C.3     1  UNL1        0.0788
     25 H           2.9752    0.9318    0.0000 H       1  UNL1        0.0541
     26 H           3.1777    0.6113    0.0000 H       1  UNL1        0.0663
     27 H           2.7054    3.4457    0.0000 H       1  UNL1        0.0430
     28 H           2.2944    2.7651    0.0000 H       1  UNL1        0.0430
     29 H           4.1737    3.8164    0.0000 H       1  UNL1        0.0326
     30 H           3.3786    3.8223    0.0000 H       1  UNL1        0.0326
     31 H           5.4969    3.9667    0.0000 H       1  UNL1        0.0658
     32 H           1.7073    1.9426    0.0000 H       1  UNL1        0.0391
     33 H           1.4534    1.1034    0.0000 H       1  UNL1        0.0391
     34 H           2.2927    0.8494    0.0000 H       1  UNL1        0.0391
     35 H           4.0684   -1.6155    0.0000 H       1  UNL1        0.0658
     36 H           6.9958    0.1048    0.0000 H       1  UNL1        0.0625
     37 H           2.8425   -0.8184    0.0000 H       1  UNL1        0.2103
     38 H           7.0221   -1.6041    0.0000 H       1  UNL1        0.0654
     39 H           8.3536    1.9320    0.0000 H       1  UNL1        0.1166
     40 H           8.3536    2.7614    0.0000 H       1  UNL1        0.1166
     41 H           6.1101   -3.8848    0.0000 H       1  UNL1        0.0660
     42 H           6.9561   -3.6546    0.0000 H       1  UNL1        0.0660
     43 H           6.7259   -2.8086    0.0000 H       1  UNL1        0.0660
@<TRIPOS>BOND
     1     8     1    1
     2     1    37    1
     3     2    15    1
     4     2    23    1
     5     3    17    1
     6     3    23    1
     7     4    21    1
     8     4    24    1
     9     5     6    1
    10     5    11    1
    11     5    18    1
    12     6     7    1
    13     6     8    1
    14     6    25    1
    15     7     9   ar
    16     7    10   ar
    17     8    13    1
    18     8    26    1
    19     9    12    1
    20     9    16   ar
    21    10    14    1
    22    10    15   ar
    23    11    12    1
    24    11    27    1
    25    11    28    1
    26    12    29    1
    27    12    30    1
    28    13    14   ar
    29    13    19   ar
    30    14    20   ar
    31    15    17   ar
    32    16    17   ar
    33    16    31    1
    34    18    32    1
    35    18    33    1
    36    18    34    1
    37    19    21   ar
    38    19    35    1
    39    20    22   ar
    40    20    36    1
    41    21    22   ar
    42    22    38    1
    43    23    39    1
    44    23    40    1
    45    24    41    1
    46    24    42    1
    47    24    43    1
