@<TRIPOS>MOLECULE
IMPHY017682
 30 30 0 0 0
SMALL
GASTEIGER

@<TRIPOS>ATOM
      1 C           4.5981   -0.5000    0.0000 C.ar    1  UNL1       -0.0441
      2 C           4.5981    0.5000    0.0000 C.ar    1  UNL1       -0.0441
      3 C           3.7320   -1.0000    0.0000 C.ar    1  UNL1       -0.0441
      4 C           3.7320    1.0000    0.0000 C.ar    1  UNL1       -0.0441
      5 C           2.8660   -0.5000    0.0000 C.ar    1  UNL1       -0.0441
      6 C           2.8660    0.5000    0.0000 C.ar    1  UNL1       -0.0441
      7 C           5.4641   -1.0000    0.0000 C.3     1  UNL1       -0.0392
      8 C           5.4641    1.0000    0.0000 C.3     1  UNL1       -0.0392
      9 C           3.7320   -2.0000    0.0000 C.3     1  UNL1       -0.0392
     10 C           3.7320    2.0000    0.0000 C.3     1  UNL1       -0.0392
     11 C           2.0000   -1.0000    0.0000 C.3     1  UNL1       -0.0392
     12 C           2.0000    1.0000    0.0000 C.3     1  UNL1       -0.0392
     13 H           5.1541   -1.5369    0.0000 H       1  UNL1        0.0278
     14 H           6.0010   -1.3100    0.0000 H       1  UNL1        0.0278
     15 H           5.7741   -0.4631    0.0000 H       1  UNL1        0.0278
     16 H           5.7741    0.4631    0.0000 H       1  UNL1        0.0278
     17 H           6.0010    1.3100    0.0000 H       1  UNL1        0.0278
     18 H           5.1541    1.5369    0.0000 H       1  UNL1        0.0278
     19 H           3.1120   -2.0000    0.0000 H       1  UNL1        0.0278
     20 H           3.7320   -2.6200    0.0000 H       1  UNL1        0.0278
     21 H           4.3520   -2.0000    0.0000 H       1  UNL1        0.0278
     22 H           4.3520    2.0000    0.0000 H       1  UNL1        0.0278
     23 H           3.7320    2.6200    0.0000 H       1  UNL1        0.0278
     24 H           3.1120    2.0000    0.0000 H       1  UNL1        0.0278
     25 H           1.6900   -0.4631    0.0000 H       1  UNL1        0.0278
     26 H           1.4631   -1.3100    0.0000 H       1  UNL1        0.0278
     27 H           2.3100   -1.5369    0.0000 H       1  UNL1        0.0278
     28 H           2.3100    1.5369    0.0000 H       1  UNL1        0.0278
     29 H           1.4631    1.3100    0.0000 H       1  UNL1        0.0278
     30 H           1.6900    0.4631    0.0000 H       1  UNL1        0.0278
@<TRIPOS>BOND
     1     1     2   ar
     2     1     3   ar
     3     1     7    1
     4     2     4   ar
     5     2     8    1
     6     3     5   ar
     7     3     9    1
     8     4     6   ar
     9     4    10    1
    10     5     6   ar
    11     5    11    1
    12     6    12    1
    13     7    13    1
    14     7    14    1
    15     7    15    1
    16     8    16    1
    17     8    17    1
    18     8    18    1
    19     9    19    1
    20     9    20    1
    21     9    21    1
    22    10    22    1
    23    10    23    1
    24    10    24    1
    25    11    25    1
    26    11    26    1
    27    11    27    1
    28    12    28    1
    29    12    29    1
    30    12    30    1
