@<TRIPOS>MOLECULE
IMPHY001307
 26 27 0 0 0
SMALL
GASTEIGER

@<TRIPOS>ATOM
      1 O           3.7320    2.0204    0.0000 O.3     1  UNL1       -0.3869
      2 O           3.7320   -1.9796    0.0000 O.2     1  UNL1       -0.2919
      3 O           5.4804   -2.0142    0.0000 O.3     1  UNL1       -0.5061
      4 C           2.8660    0.5204    0.0000 C.3     1  UNL1       -0.0066
      5 C           3.7320    1.0204    0.0000 C.3     1  UNL1        0.0839
      6 C           2.8660   -0.4796    0.0000 C.3     1  UNL1        0.0158
      7 C           4.5981    0.5204    0.0000 C.ar    1  UNL1       -0.0049
      8 C           4.5981   -0.4796    0.0000 C.ar    1  UNL1        0.0644
      9 C           3.7320   -0.9796    0.0000 C.2     1  UNL1        0.1673
     10 C           2.0000    1.0204    0.0000 C.3     1  UNL1       -0.0594
     11 C           5.4920    1.0550    0.0000 C.ar    1  UNL1       -0.0552
     12 C           5.4920   -1.0143    0.0000 C.ar    1  UNL1        0.1277
     13 C           6.3981    0.5412    0.0000 C.ar    1  UNL1       -0.0579
     14 C           6.3981   -0.5004    0.0000 C.ar    1  UNL1       -0.0195
     15 H           2.8660    1.1404    0.0000 H       1  UNL1        0.0330
     16 H           4.2690    1.3304    0.0000 H       1  UNL1        0.0646
     17 H           2.2554   -0.3719    0.0000 H       1  UNL1        0.0349
     18 H           2.6540   -1.0622    0.0000 H       1  UNL1        0.0349
     19 H           2.3100    1.5573    0.0000 H       1  UNL1        0.0233
     20 H           1.4631    1.3304    0.0000 H       1  UNL1        0.0233
     21 H           1.6900    0.4835    0.0000 H       1  UNL1        0.0233
     22 H           5.4848    1.6750    0.0000 H       1  UNL1        0.0621
     23 H           3.1951    2.3304    0.0000 H       1  UNL1        0.2102
     24 H           6.9338    0.8533    0.0000 H       1  UNL1        0.0619
     25 H           6.9338   -0.8125    0.0000 H       1  UNL1        0.0654
     26 H           6.0138   -2.3304    0.0000 H       1  UNL1        0.2922
@<TRIPOS>BOND
     1     5     1    1
     2     1    23    1
     3     2     9    2
     4     3    12    1
     5     3    26    1
     6     4     5    1
     7     4     6    1
     8     4    10    1
     9     4    15    1
    10     5     7    1
    11     5    16    1
    12     6     9    1
    13     6    17    1
    14     6    18    1
    15     7     8   ar
    16     7    11   ar
    17     8     9    1
    18     8    12   ar
    19    10    19    1
    20    10    20    1
    21    10    21    1
    22    11    13   ar
    23    11    22    1
    24    12    14   ar
    25    13    14   ar
    26    13    24    1
    27    14    25    1
