@<TRIPOS>MOLECULE
IMPHY003659
 33 35 0 0 0
SMALL
GASTEIGER

@<TRIPOS>ATOM
      1 O           7.3424    0.1671    0.0000 O.3     1  UNL1       -0.4816
      2 O           9.9260   -0.6377    0.0000 O.3     1  UNL1       -0.3855
      3 O           3.7702    0.3970    0.0000 O.2     1  UNL1       -0.4183
      4 O           5.5301    1.3623    0.0000 O.3     1  UNL1       -0.5009
      5 O           2.0000    0.3865    0.0000 O.2     1  UNL1       -0.2452
      6 C           7.9260   -0.6377    0.0000 C.3     1  UNL1        0.1324
      7 C           8.9260   -0.6377    0.0000 C.3     1  UNL1        0.0974
      8 C           7.3424   -1.4424    0.0000 C.3     1  UNL1        0.0158
      9 C           6.3961   -1.1377    0.0000 C.ar    1  UNL1        0.0023
     10 C           6.3961   -0.1377    0.0000 C.ar    1  UNL1        0.1693
     11 C           8.9260   -1.6377    0.0000 C.3     1  UNL1       -0.0328
     12 C           8.9260    0.3623    0.0000 C.3     1  UNL1       -0.0328
     13 C           5.5301   -1.6377    0.0000 C.ar    1  UNL1       -0.0441
     14 C           5.5301    0.3623    0.0000 C.ar    1  UNL1        0.2027
     15 C           4.6641   -1.1377    0.0000 C.ar    1  UNL1        0.0218
     16 C           4.6641   -0.1377    0.0000 C.ar    1  UNL1        0.1839
     17 C           3.7702   -1.6723    0.0000 C.ar    1  UNL1       -0.0442
     18 C           2.8641   -1.1585    0.0000 C.ar    1  UNL1        0.0236
     19 C           2.8641   -0.1169    0.0000 C.ar    1  UNL1        0.3373
     20 H           8.3122    0.1195    0.0000 H       1  UNL1        0.0765
     21 H           7.0913   -2.0093    0.0000 H       1  UNL1        0.0351
     22 H           7.8798   -1.7516    0.0000 H       1  UNL1        0.0351
     23 H           9.5460    0.3623    0.0000 H       1  UNL1        0.0258
     24 H           8.9260    0.9823    0.0000 H       1  UNL1        0.0258
     25 H           8.3060   -1.6377    0.0000 H       1  UNL1        0.0258
     26 H           8.9260   -2.2577    0.0000 H       1  UNL1        0.0258
     27 H           9.5460   -1.6377    0.0000 H       1  UNL1        0.0258
     28 H           8.3060    0.3623    0.0000 H       1  UNL1        0.0258
     29 H           5.5301   -2.2577    0.0000 H       1  UNL1        0.0628
     30 H          10.2360   -1.1746    0.0000 H       1  UNL1        0.2103
     31 H           3.7773   -2.2923    0.0000 H       1  UNL1        0.0627
     32 H           4.9932    1.6723    0.0000 H       1  UNL1        0.2924
     33 H           2.3284   -1.4706    0.0000 H       1  UNL1        0.0689
@<TRIPOS>BOND
     1     1     6    1
     2     1    10    1
     3     2     7    1
     4     2    30    1
     5     3    16   ar
     6     3    19   ar
     7     4    14    1
     8     4    32    1
     9     5    19    2
    10     6     7    1
    11     6     8    1
    12     6    20    1
    13     7    11    1
    14     7    12    1
    15     8     9    1
    16     8    21    1
    17     8    22    1
    18     9    10   ar
    19     9    13   ar
    20    10    14   ar
    21    11    25    1
    22    11    26    1
    23    11    27    1
    24    12    23    1
    25    12    24    1
    26    12    28    1
    27    13    15   ar
    28    13    29    1
    29    14    16   ar
    30    15    16   ar
    31    15    17   ar
    32    17    18   ar
    33    17    31    1
    34    18    19   ar
    35    18    33    1
