@<TRIPOS>MOLECULE
IMPHY010521
 106 111 0 0 0
SMALL
GASTEIGER

@<TRIPOS>ATOM
      1 O          20.1865   -0.3319    0.0000 O.3     1  UNL1       -0.3419
      2 O          18.4166    0.6991    0.0000 O.3     1  UNL1       -0.3852
      3 O          18.4545   -0.3319    0.0000 O.3     1  UNL1       -0.3394
      4 O          23.0168   -1.9116    0.0000 O.3     1  UNL1       -0.4526
      5 O          24.4782   -1.0902    0.0000 O.3     1  UNL1       -0.4526
      6 O          20.1865   -2.3319    0.0000 O.3     1  UNL1       -0.3841
      7 O          18.4545   -3.3318    0.0000 O.3     1  UNL1       -0.3864
      8 O          16.7224   -2.3319    0.0000 O.3     1  UNL1       -0.3864
      9 O          15.8564   -0.8319    0.0000 O.3     1  UNL1       -0.4619
     10 O          14.9904    0.6681    0.0000 O.2     1  UNL1       -0.2509
     11 N          21.9699    2.6823    0.0000 N.3     1  UNL1       -0.2906
     12 C          21.0982    2.1924    0.0000 C.3     1  UNL1        0.0414
     13 C          21.0866    1.1924    0.0000 C.3     1  UNL1        0.0330
     14 C          20.1865    0.6681    0.0000 C.3     1  UNL1        0.0996
     15 C          20.2105    2.7373    0.0000 C.2     1  UNL1       -0.0521
     16 C          21.6155    3.6108    0.0000 C.3     1  UNL1        0.0035
     17 C          20.6222    3.6419    0.0000 C.3     1  UNL1       -0.0173
     18 C          21.9468    0.6825    0.0000 C.ar    1  UNL1       -0.0318
     19 C          19.2865    1.1924    0.0000 C.3     1  UNL1        0.1005
     20 C          22.8301    2.1723    0.0000 C.3     1  UNL1        0.0250
     21 C          19.2985    2.2340    0.0000 C.2     1  UNL1       -0.0526
     22 C          22.8185    1.1724    0.0000 C.ar    1  UNL1       -0.0261
     23 C          21.9187   -0.3588    0.0000 C.ar    1  UNL1       -0.0123
     24 C          19.3205   -0.8319    0.0000 C.3     1  UNL1        0.1884
     25 C          23.7226    0.6551    0.0000 C.ar    1  UNL1       -0.0115
     26 C          22.8106   -0.8969    0.0000 C.ar    1  UNL1        0.1665
     27 C          19.3205   -1.8318    0.0000 C.3     1  UNL1        0.1341
     28 C          23.7186   -0.3866    0.0000 C.ar    1  UNL1        0.1665
     29 C          18.4545   -2.3319    0.0000 C.3     1  UNL1        0.1141
     30 C          17.5885   -0.8319    0.0000 C.3     1  UNL1        0.1240
     31 C          17.5885   -1.8318    0.0000 C.3     1  UNL1        0.1129
     32 C          24.0453   -2.0309    0.0000 C.3     1  UNL1        0.2332
     33 C          16.7224   -0.3319    0.0000 C.3     1  UNL1        0.1211
     34 C          14.9904   -0.3319    0.0000 C.2     1  UNL1        0.3072
     35 C          14.1244   -0.8319    0.0000 C.3     1  UNL1        0.0449
     36 C          13.2583   -0.3319    0.0000 C.3     1  UNL1       -0.0430
     37 C          12.3923   -0.8319    0.0000 C.3     1  UNL1       -0.0526
     38 C          11.5263   -0.3319    0.0000 C.3     1  UNL1       -0.0530
     39 C          10.6603   -0.8319    0.0000 C.3     1  UNL1       -0.0531
     40 C           9.7942   -0.3319    0.0000 C.3     1  UNL1       -0.0531
     41 C           8.9282   -0.8319    0.0000 C.3     1  UNL1       -0.0531
     42 C           8.0622   -0.3319    0.0000 C.3     1  UNL1       -0.0531
     43 C           7.1962   -0.8319    0.0000 C.3     1  UNL1       -0.0531
     44 C           6.3301   -0.3319    0.0000 C.3     1  UNL1       -0.0531
     45 C           5.4641   -0.8319    0.0000 C.3     1  UNL1       -0.0531
     46 C           4.5981   -0.3319    0.0000 C.3     1  UNL1       -0.0531
     47 C           3.7320   -0.8319    0.0000 C.3     1  UNL1       -0.0533
     48 C           2.8660   -0.3319    0.0000 C.3     1  UNL1       -0.0559
     49 C           2.0000   -0.8319    0.0000 C.3     1  UNL1       -0.0653
     50 H          20.3572    1.7759    0.0000 H       1  UNL1        0.0516
     51 H          21.0833    0.3424    0.0000 H       1  UNL1        0.0394
     52 H          20.7241    0.3592    0.0000 H       1  UNL1        0.0633
     53 H          22.2188    3.7538    0.0000 H       1  UNL1        0.0430
     54 H          21.5532    4.2277    0.0000 H       1  UNL1        0.0430
     55 H          20.7229    4.2536    0.0000 H       1  UNL1        0.0323
     56 H          20.0290    3.8222    0.0000 H       1  UNL1        0.0323
     57 H          18.7525    1.5076    0.0000 H       1  UNL1        0.0664
     58 H          23.4394    2.0576    0.0000 H       1  UNL1        0.0476
     59 H          23.0489    2.7525    0.0000 H       1  UNL1        0.0476
     60 H          18.7664    2.5522    0.0000 H       1  UNL1        0.0598
     61 H          21.3747   -0.6563    0.0000 H       1  UNL1        0.0658
     62 H          19.8574   -1.1418    0.0000 H       1  UNL1        0.0938
     63 H          24.2595    0.9651    0.0000 H       1  UNL1        0.0658
     64 H          19.3205   -2.4518    0.0000 H       1  UNL1        0.0671
     65 H          17.8821    1.0132    0.0000 H       1  UNL1        0.2103
     66 H          17.9175   -2.6419    0.0000 H       1  UNL1        0.0648
     67 H          17.5885   -0.2119    0.0000 H       1  UNL1        0.0658
     68 H          17.0515   -1.5218    0.0000 H       1  UNL1        0.0647
     69 H          23.9096   -2.6358    0.0000 H       1  UNL1        0.1166
     70 H          24.6327   -2.2294    0.0000 H       1  UNL1        0.1166
     71 H          17.1210    0.1431    0.0000 H       1  UNL1        0.0724
     72 H          16.3239    0.1431    0.0000 H       1  UNL1        0.0724
     73 H          20.1865   -2.9518    0.0000 H       1  UNL1        0.2101
     74 H          17.9175   -3.6419    0.0000 H       1  UNL1        0.2100
     75 H          16.7224   -2.9518    0.0000 H       1  UNL1        0.2100
     76 H          13.7258   -1.3068    0.0000 H       1  UNL1        0.0377
     77 H          14.5229   -1.3068    0.0000 H       1  UNL1        0.0377
     78 H          13.6569    0.1431    0.0000 H       1  UNL1        0.0270
     79 H          12.8598    0.1431    0.0000 H       1  UNL1        0.0270
     80 H          11.9938   -1.3068    0.0000 H       1  UNL1        0.0265
     81 H          12.7908   -1.3068    0.0000 H       1  UNL1        0.0265
     82 H          11.9248    0.1431    0.0000 H       1  UNL1        0.0265
     83 H          11.1278    0.1431    0.0000 H       1  UNL1        0.0265
     84 H          10.2617   -1.3068    0.0000 H       1  UNL1        0.0265
     85 H          11.0588   -1.3068    0.0000 H       1  UNL1        0.0265
     86 H          10.1928    0.1431    0.0000 H       1  UNL1        0.0265
     87 H           9.3957    0.1431    0.0000 H       1  UNL1        0.0265
     88 H           8.5297   -1.3068    0.0000 H       1  UNL1        0.0265
     89 H           9.3267   -1.3068    0.0000 H       1  UNL1        0.0265
     90 H           8.4607    0.1431    0.0000 H       1  UNL1        0.0265
     91 H           7.6636    0.1431    0.0000 H       1  UNL1        0.0265
     92 H           6.7976   -1.3068    0.0000 H       1  UNL1        0.0265
     93 H           7.5947   -1.3068    0.0000 H       1  UNL1        0.0265
     94 H           6.7287    0.1431    0.0000 H       1  UNL1        0.0265
     95 H           5.9316    0.1431    0.0000 H       1  UNL1        0.0265
     96 H           5.0656   -1.3068    0.0000 H       1  UNL1        0.0265
     97 H           5.8626   -1.3068    0.0000 H       1  UNL1        0.0265
     98 H           4.9966    0.1431    0.0000 H       1  UNL1        0.0265
     99 H           4.1996    0.1431    0.0000 H       1  UNL1        0.0265
    100 H           3.3335   -1.3068    0.0000 H       1  UNL1        0.0265
    101 H           4.1306   -1.3068    0.0000 H       1  UNL1        0.0265
    102 H           3.2646    0.1431    0.0000 H       1  UNL1        0.0263
    103 H           2.4675    0.1431    0.0000 H       1  UNL1        0.0263
    104 H           1.6900   -0.2949    0.0000 H       1  UNL1        0.0230
    105 H           1.4631   -1.1418    0.0000 H       1  UNL1        0.0230
    106 H           2.3100   -1.3688    0.0000 H       1  UNL1        0.0230
@<TRIPOS>BOND
     1    14     1    1
     2    24     1    1
     3    19     2    1
     4     2    65    1
     5     3    24    1
     6     3    30    1
     7     4    26    1
     8     4    32    1
     9     5    28    1
    10     5    32    1
    11    27     6    1
    12     6    73    1
    13    29     7    1
    14     7    74    1
    15    31     8    1
    16     8    75    1
    17     9    33    1
    18     9    34    1
    19    10    34    2
    20    11    12    1
    21    11    16    1
    22    11    20    1
    23    12    13    1
    24    12    15    1
    25    12    50    1
    26    13    14    1
    27    13    18    1
    28    13    51    1
    29    14    19    1
    30    14    52    1
    31    15    17    1
    32    15    21    2
    33    16    17    1
    34    16    53    1
    35    16    54    1
    36    17    55    1
    37    17    56    1
    38    18    22   ar
    39    18    23   ar
    40    19    21    1
    41    19    57    1
    42    20    22    1
    43    20    58    1
    44    20    59    1
    45    21    60    1
    46    22    25   ar
    47    23    26   ar
    48    23    61    1
    49    24    27    1
    50    24    62    1
    51    25    28   ar
    52    25    63    1
    53    26    28   ar
    54    27    29    1
    55    27    64    1
    56    29    31    1
    57    29    66    1
    58    30    31    1
    59    30    33    1
    60    30    67    1
    61    31    68    1
    62    32    69    1
    63    32    70    1
    64    33    71    1
    65    33    72    1
    66    34    35    1
    67    35    36    1
    68    35    76    1
    69    35    77    1
    70    36    37    1
    71    36    78    1
    72    36    79    1
    73    37    38    1
    74    37    80    1
    75    37    81    1
    76    38    39    1
    77    38    82    1
    78    38    83    1
    79    39    40    1
    80    39    84    1
    81    39    85    1
    82    40    41    1
    83    40    86    1
    84    40    87    1
    85    41    42    1
    86    41    88    1
    87    41    89    1
    88    42    43    1
    89    42    90    1
    90    42    91    1
    91    43    44    1
    92    43    92    1
    93    43    93    1
    94    44    45    1
    95    44    94    1
    96    44    95    1
    97    45    46    1
    98    45    96    1
    99    45    97    1
   100    46    47    1
   101    46    98    1
   102    46    99    1
   103    47    48    1
   104    47   100    1
   105    47   101    1
   106    48    49    1
   107    48   102    1
   108    48   103    1
   109    49   104    1
   110    49   105    1
   111    49   106    1
