@<TRIPOS>MOLECULE
IMPHY013745
 27 28 0 0 0
SMALL
GASTEIGER

@<TRIPOS>ATOM
      1 O           4.2690    1.0000    0.0000 O.2     1  UNL1       -0.2866
      2 O           2.5369   -1.0000    0.0000 O.3     1  UNL1       -0.4771
      3 O           3.4030    0.5000    0.0000 O.2     1  UNL1       -0.2451
      4 C           5.1350   -0.5000    0.0000 C.ar    1  UNL1        0.0362
      5 C           4.2690   -1.0000    0.0000 C.ar    1  UNL1        0.0696
      6 C           5.1350    0.5000    0.0000 C.2     1  UNL1        0.1939
      7 C           6.0010    1.0000    0.0000 C.ar    1  UNL1        0.0223
      8 C           6.0010   -1.0000    0.0000 C.ar    1  UNL1       -0.0501
      9 C           4.2690   -2.0000    0.0000 C.ar    1  UNL1       -0.0471
     10 C           6.8671    0.5000    0.0000 C.ar    1  UNL1       -0.0509
     11 C           6.0010    2.0000    0.0000 C.ar    1  UNL1       -0.0509
     12 C           6.0010   -2.0000    0.0000 C.ar    1  UNL1       -0.0610
     13 C           5.1350   -2.5000    0.0000 C.ar    1  UNL1       -0.0609
     14 C           7.7331    1.0000    0.0000 C.ar    1  UNL1       -0.0611
     15 C           6.8671    2.5000    0.0000 C.ar    1  UNL1       -0.0611
     16 C           3.4030   -0.5000    0.0000 C.2     1  UNL1        0.3375
     17 C           7.7331    2.0000    0.0000 C.ar    1  UNL1       -0.0617
     18 H           6.5380   -0.6900    0.0000 H       1  UNL1        0.0625
     19 H           3.7320   -2.3100    0.0000 H       1  UNL1        0.0626
     20 H           6.8671   -0.1200    0.0000 H       1  UNL1        0.0625
     21 H           5.4641    2.3100    0.0000 H       1  UNL1        0.0625
     22 H           6.5380   -2.3100    0.0000 H       1  UNL1        0.0618
     23 H           5.1350   -3.1200    0.0000 H       1  UNL1        0.0618
     24 H           8.2700    0.6900    0.0000 H       1  UNL1        0.0618
     25 H           6.8671    3.1200    0.0000 H       1  UNL1        0.0618
     26 H           8.2700    2.3100    0.0000 H       1  UNL1        0.0618
     27 H           2.0000   -0.6900    0.0000 H       1  UNL1        0.2954
@<TRIPOS>BOND
     1     1     6    2
     2     2    16    1
     3     2    27    1
     4     3    16    2
     5     4     5   ar
     6     4     6    1
     7     4     8   ar
     8     5     9   ar
     9     5    16    1
    10     6     7    1
    11     7    10   ar
    12     7    11   ar
    13     8    12   ar
    14     8    18    1
    15     9    13   ar
    16     9    19    1
    17    10    14   ar
    18    10    20    1
    19    11    15   ar
    20    11    21    1
    21    12    13   ar
    22    12    22    1
    23    13    23    1
    24    14    17   ar
    25    14    24    1
    26    15    17   ar
    27    15    25    1
    28    17    26    1
