@<TRIPOS>MOLECULE
IMPHY002248
 81 86 0 0 0
SMALL
GASTEIGER

@<TRIPOS>ATOM
      1 O           4.6239   -2.9504    0.0000 O.3     1  UNL1       -0.3604
      2 C           3.8864   -2.2832    0.0000 C.3     1  UNL1        0.1050
      3 C           3.0204   -1.7832    0.0000 C.3     1  UNL1        0.0032
      4 C           3.6772   -3.2551    0.0000 C.3     1  UNL1        0.1020
      5 C           3.0204   -0.7832    0.0000 C.3     1  UNL1       -0.0270
      6 C           3.8864   -0.2832    0.0000 C.3     1  UNL1       -0.0229
      7 C           3.9025    0.7583    0.0000 C.3     1  UNL1       -0.0231
      8 C           4.7524   -1.7832    0.0000 C.3     1  UNL1       -0.0199
      9 C           2.2834   -2.4503    0.0000 C.3     1  UNL1       -0.0419
     10 C           2.6885   -3.3581    0.0000 C.3     1  UNL1       -0.0201
     11 C           3.0044    1.2860    0.0000 C.3     1  UNL1       -0.0294
     12 C           4.7524   -0.7832    0.0000 C.3     1  UNL1       -0.0441
     13 C           2.1104   -0.2764    0.0000 C.3     1  UNL1       -0.0488
     14 C           2.9961    2.3710    0.0000 C.3     1  UNL1       -0.0254
     15 C           3.4668   -4.2326    0.0000 C.3     1  UNL1       -0.0148
     16 C           2.1023    0.7652    0.0000 C.3     1  UNL1       -0.0489
     17 C           2.1544   -1.2832    0.0000 C.3     1  UNL1       -0.0566
     18 C           4.8544    1.2789    0.0000 C.3     1  UNL1       -0.0466
     19 C           3.9357    2.9135    0.0000 C.3     1  UNL1       -0.0302
     20 C           4.8712   -0.1096    0.0000 C.3     1  UNL1       -0.0588
     21 C           4.8711    2.3638    0.0000 C.3     1  UNL1       -0.0487
     22 C           4.8859    0.5770    0.0000 C.3     1  UNL1       -0.0588
     23 C           2.0087    2.9209    0.0000 C.3     1  UNL1       -0.0471
     24 C           3.9531    4.0435    0.0000 C.3     1  UNL1       -0.0315
     25 C           2.1300    1.8710    0.0000 C.3     1  UNL1       -0.0590
     26 C           4.2082   -4.9037    0.0000 C.3     1  UNL1       -0.0600
     27 C           2.5149   -4.5392    0.0000 C.3     1  UNL1       -0.0600
     28 C           2.0000    4.0510    0.0000 C.3     1  UNL1       -0.0521
     29 C           2.9787    4.6161    0.0000 C.3     1  UNL1       -0.0476
     30 C           4.4631    4.9037    0.0000 C.3     1  UNL1       -0.0595
     31 C           4.9530    4.0320    0.0000 C.3     1  UNL1       -0.0595
     32 H           3.7565   -1.2082    0.0000 H       1  UNL1        0.0312
     33 H           4.9645   -2.3658    0.0000 H       1  UNL1        0.0294
     34 H           5.3630   -1.6756    0.0000 H       1  UNL1        0.0294
     35 H           1.9179   -1.9495    0.0000 H       1  UNL1        0.0272
     36 H           1.7469   -2.7611    0.0000 H       1  UNL1        0.0272
     37 H           2.0989   -3.5499    0.0000 H       1  UNL1        0.0294
     38 H           2.8172   -3.9646    0.0000 H       1  UNL1        0.0294
     39 H           2.2667    1.7082    0.0000 H       1  UNL1        0.0312
     40 H           5.3630   -0.8909    0.0000 H       1  UNL1        0.0272
     41 H           4.9645   -0.2006    0.0000 H       1  UNL1        0.0272
     42 H           1.4987   -0.1750    0.0000 H       1  UNL1        0.0268
     43 H           1.9058   -0.8617    0.0000 H       1  UNL1        0.0268
     44 H           3.3363   -4.8388    0.0000 H       1  UNL1        0.0324
     45 H           1.8888    1.3473    0.0000 H       1  UNL1        0.0268
     46 H           1.4923    0.6544    0.0000 H       1  UNL1        0.0268
     47 H           2.4644   -0.7463    0.0000 H       1  UNL1        0.0236
     48 H           1.6174   -0.9732    0.0000 H       1  UNL1        0.0236
     49 H           1.8444   -1.8202    0.0000 H       1  UNL1        0.0236
     50 H           5.0544    0.6921    0.0000 H       1  UNL1        0.0271
     51 H           5.4668    1.3756    0.0000 H       1  UNL1        0.0271
     52 H           4.6767    3.3300    0.0000 H       1  UNL1        0.0311
     53 H           4.9789   -0.7202    0.0000 H       1  UNL1        0.0235
     54 H           5.4818   -0.0019    0.0000 H       1  UNL1        0.0235
     55 H           4.7636    0.5010    0.0000 H       1  UNL1        0.0235
     56 H           5.4803    2.2483    0.0000 H       1  UNL1        0.0268
     57 H           5.0891    2.9442    0.0000 H       1  UNL1        0.0268
     58 H           4.7735   -0.0327    0.0000 H       1  UNL1        0.0235
     59 H           5.4956    0.4647    0.0000 H       1  UNL1        0.0235
     60 H           4.9983    1.1868    0.0000 H       1  UNL1        0.0235
     61 H           1.3971    3.0223    0.0000 H       1  UNL1        0.0271
     62 H           1.8042    2.3356    0.0000 H       1  UNL1        0.0271
     63 H           1.8200    2.4079    0.0000 H       1  UNL1        0.0235
     64 H           1.5931    1.5610    0.0000 H       1  UNL1        0.0235
     65 H           2.4400    1.3341    0.0000 H       1  UNL1        0.0235
     66 H           2.3248   -3.9490    0.0000 H       1  UNL1        0.0233
     67 H           1.9247   -4.7293    0.0000 H       1  UNL1        0.0233
     68 H           2.7050   -5.1293    0.0000 H       1  UNL1        0.0233
     69 H           3.7921   -5.3634    0.0000 H       1  UNL1        0.0233
     70 H           4.6678   -5.3198    0.0000 H       1  UNL1        0.0233
     71 H           4.6242   -4.4440    0.0000 H       1  UNL1        0.0233
     72 H           1.7864    4.6331    0.0000 H       1  UNL1        0.0266
     73 H           1.3900    3.9402    0.0000 H       1  UNL1        0.0266
     74 H           3.3797    5.0890    0.0000 H       1  UNL1        0.0271
     75 H           2.5814    5.0921    0.0000 H       1  UNL1        0.0271
     76 H           4.9459    3.4120    0.0000 H       1  UNL1        0.0235
     77 H           5.5730    4.0248    0.0000 H       1  UNL1        0.0235
     78 H           4.9602    4.6519    0.0000 H       1  UNL1        0.0235
     79 H           4.9964    4.5875    0.0000 H       1  UNL1        0.0235
     80 H           4.7793    5.4370    0.0000 H       1  UNL1        0.0235
     81 H           3.9298    5.2199    0.0000 H       1  UNL1        0.0235
@<TRIPOS>BOND
     1     2     1    1
     2     1     4    1
     3     2     3    1
     4     2     4    1
     5     2     8    1
     6     3     5    1
     7     3     9    1
     8     3    17    1
     9     4    10    1
    10     4    15    1
    11     5     6    1
    12     5    13    1
    13     5    32    1
    14     6     7    1
    15     6    12    1
    16     6    20    1
    17     7    11    1
    18     7    18    1
    19     7    22    1
    20     8    12    1
    21     8    33    1
    22     8    34    1
    23     9    10    1
    24     9    35    1
    25     9    36    1
    26    10    37    1
    27    10    38    1
    28    11    14    1
    29    11    16    1
    30    11    39    1
    31    12    40    1
    32    12    41    1
    33    13    16    1
    34    13    42    1
    35    13    43    1
    36    14    19    1
    37    14    23    1
    38    14    25    1
    39    15    26    1
    40    15    27    1
    41    15    44    1
    42    16    45    1
    43    16    46    1
    44    17    47    1
    45    17    48    1
    46    17    49    1
    47    18    21    1
    48    18    50    1
    49    18    51    1
    50    19    21    1
    51    19    24    1
    52    19    52    1
    53    20    53    1
    54    20    54    1
    55    20    55    1
    56    21    56    1
    57    21    57    1
    58    22    58    1
    59    22    59    1
    60    22    60    1
    61    23    28    1
    62    23    61    1
    63    23    62    1
    64    24    29    1
    65    24    30    1
    66    24    31    1
    67    25    63    1
    68    25    64    1
    69    25    65    1
    70    26    69    1
    71    26    70    1
    72    26    71    1
    73    27    66    1
    74    27    67    1
    75    27    68    1
    76    28    29    1
    77    28    72    1
    78    28    73    1
    79    29    74    1
    80    29    75    1
    81    30    79    1
    82    30    80    1
    83    30    81    1
    84    31    76    1
    85    31    77    1
    86    31    78    1
