@<TRIPOS>MOLECULE
IMPHY016320
 22 22 0 0 0
SMALL
GASTEIGER

@<TRIPOS>ATOM
      1 O           3.7320    1.8450    0.0000 O.3     1  UNL1       -0.5062
      2 C           2.8660    0.3450    0.0000 C.ar    1  UNL1       -0.0085
      3 C           4.5981    0.3450    0.0000 C.ar    1  UNL1       -0.0085
      4 C           3.7320   -1.1550    0.0000 C.ar    1  UNL1       -0.0497
      5 C           3.7320    0.8450    0.0000 C.ar    1  UNL1        0.1226
      6 C           2.8660   -0.6550    0.0000 C.ar    1  UNL1       -0.0524
      7 C           4.5981   -0.6550    0.0000 C.ar    1  UNL1       -0.0524
      8 C           2.0000    0.8450    0.0000 C.3     1  UNL1       -0.0362
      9 C           5.4641    0.8450    0.0000 C.3     1  UNL1       -0.0362
     10 C           3.7320   -2.1550    0.0000 C.3     1  UNL1       -0.0397
     11 H           2.3291   -0.9650    0.0000 H       1  UNL1        0.0624
     12 H           5.1350   -0.9650    0.0000 H       1  UNL1        0.0624
     13 H           2.3100    1.3819    0.0000 H       1  UNL1        0.0279
     14 H           1.4631    1.1550    0.0000 H       1  UNL1        0.0279
     15 H           1.6900    0.3081    0.0000 H       1  UNL1        0.0279
     16 H           5.7741    0.3081    0.0000 H       1  UNL1        0.0279
     17 H           6.0010    1.1550    0.0000 H       1  UNL1        0.0279
     18 H           5.1541    1.3819    0.0000 H       1  UNL1        0.0279
     19 H           3.1120   -2.1550    0.0000 H       1  UNL1        0.0278
     20 H           3.7320   -2.7750    0.0000 H       1  UNL1        0.0278
     21 H           4.3520   -2.1550    0.0000 H       1  UNL1        0.0278
     22 H           4.2690    2.1550    0.0000 H       1  UNL1        0.2922
@<TRIPOS>BOND
     1     1     5    1
     2     1    22    1
     3     2     5   ar
     4     2     6   ar
     5     2     8    1
     6     3     5   ar
     7     3     7   ar
     8     3     9    1
     9     4     6   ar
    10     4     7   ar
    11     4    10    1
    12     6    11    1
    13     7    12    1
    14     8    13    1
    15     8    14    1
    16     8    15    1
    17     9    16    1
    18     9    17    1
    19     9    18    1
    20    10    19    1
    21    10    20    1
    22    10    21    1
