@<TRIPOS>MOLECULE
IMPHY002412
 79 83 0 0 0
SMALL
GASTEIGER

@<TRIPOS>ATOM
      1 O           2.0794   -3.1327    0.0000 O.2     1  UNL1       -0.2960
      2 C           6.5251    1.4688    0.0000 C.3     1  UNL1       -0.0231
      3 C           6.5251    0.4688    0.0000 C.3     1  UNL1       -0.0231
      4 C           7.4191    2.0035    0.0000 C.3     1  UNL1       -0.0294
      5 C           5.6591   -0.0312    0.0000 C.3     1  UNL1       -0.0294
      6 C           4.7931    0.4688    0.0000 C.3     1  UNL1       -0.0251
      7 C           8.3252    1.4896    0.0000 C.3     1  UNL1       -0.0256
      8 C           5.6591    1.9688    0.0000 C.3     1  UNL1       -0.0463
      9 C           7.4191   -0.0658    0.0000 C.3     1  UNL1       -0.0463
     10 C           3.8831   -0.0380    0.0000 C.3     1  UNL1       -0.0256
     11 C           4.7931    1.4688    0.0000 C.3     1  UNL1       -0.0466
     12 C           8.3252    0.4480    0.0000 C.3     1  UNL1       -0.0466
     13 C           9.0875    2.1904    0.0000 C.3     1  UNL1       -0.0330
     14 C           7.6292    3.0174    0.0000 C.3     1  UNL1       -0.0489
     15 C           5.6752   -1.0727    0.0000 C.3     1  UNL1       -0.0484
     16 C           3.8751   -1.0796    0.0000 C.3     1  UNL1       -0.0010
     17 C           8.6582    3.1327    0.0000 C.3     1  UNL1       -0.0492
     18 C           6.5251    2.4688    0.0000 C.3     1  UNL1       -0.0588
     19 C           6.5251   -0.5312    0.0000 C.3     1  UNL1       -0.0588
     20 C           4.7771   -1.6004    0.0000 C.3     1  UNL1       -0.0430
     21 C           3.9271    0.9688    0.0000 C.3     1  UNL1       -0.0590
     22 C           9.1950    0.9963    0.0000 C.3     1  UNL1       -0.0590
     23 C           2.9562    0.5261    0.0000 C.3     1  UNL1       -0.0454
     24 C          10.0675    1.9917    0.0000 C.3     1  UNL1       -0.0434
     25 C           2.9396   -1.6294    0.0000 C.2     1  UNL1       -0.0059
     26 C           3.8674   -2.0796    0.0000 C.3     1  UNL1       -0.0552
     27 C           2.0084   -0.0019    0.0000 C.3     1  UNL1       -0.0338
     28 C           2.0000   -1.0869    0.0000 C.2     1  UNL1       -0.0773
     29 C          10.7296    2.7411    0.0000 C.3     1  UNL1       -0.0624
     30 C          10.3855    1.0436    0.0000 C.3     1  UNL1       -0.0624
     31 C           2.9435   -2.6294    0.0000 C.2     1  UNL1        0.1465
     32 H           8.1934    2.3542    0.0000 H       1  UNL1        0.0312
     33 H           6.3985   -0.4505    0.0000 H       1  UNL1        0.0312
     34 H           6.0576    2.4438    0.0000 H       1  UNL1        0.0271
     35 H           5.2606    2.4438    0.0000 H       1  UNL1        0.0271
     36 H           7.0145   -0.5356    0.0000 H       1  UNL1        0.0271
     37 H           7.8127   -0.5449    0.0000 H       1  UNL1        0.0271
     38 H           4.6142   -0.4715    0.0000 H       1  UNL1        0.0315
     39 H           4.5810    2.0514    0.0000 H       1  UNL1        0.0271
     40 H           4.1825    1.3612    0.0000 H       1  UNL1        0.0271
     41 H           8.5342   -0.1357    0.0000 H       1  UNL1        0.0271
     42 H           8.9360    0.5541    0.0000 H       1  UNL1        0.0271
     43 H           9.4733    2.6757    0.0000 H       1  UNL1        0.0309
     44 H           7.6253    3.6374    0.0000 H       1  UNL1        0.0268
     45 H           7.0122    3.0787    0.0000 H       1  UNL1        0.0268
     46 H           5.8932   -1.6531    0.0000 H       1  UNL1        0.0269
     47 H           6.2843   -0.9572    0.0000 H       1  UNL1        0.0269
     48 H           9.2463    3.3290    0.0000 H       1  UNL1        0.0268
     49 H           8.5248    3.7382    0.0000 H       1  UNL1        0.0268
     50 H           7.1451    2.4688    0.0000 H       1  UNL1        0.0235
     51 H           6.5251    3.0888    0.0000 H       1  UNL1        0.0235
     52 H           5.9051    2.4688    0.0000 H       1  UNL1        0.0235
     53 H           5.9051   -0.5312    0.0000 H       1  UNL1        0.0235
     54 H           6.5251   -1.1512    0.0000 H       1  UNL1        0.0235
     55 H           7.1451   -0.5312    0.0000 H       1  UNL1        0.0235
     56 H           4.3798   -2.0764    0.0000 H       1  UNL1        0.0274
     57 H           5.1781   -2.0733    0.0000 H       1  UNL1        0.0274
     58 H           4.2371    1.5058    0.0000 H       1  UNL1        0.0235
     59 H           3.3901    1.2788    0.0000 H       1  UNL1        0.0235
     60 H           3.6171    0.4319    0.0000 H       1  UNL1        0.0235
     61 H           8.8892    0.4570    0.0000 H       1  UNL1        0.0235
     62 H           9.7343    0.6905    0.0000 H       1  UNL1        0.0235
     63 H           9.5008    1.5356    0.0000 H       1  UNL1        0.0235
     64 H           3.3645    0.9927    0.0000 H       1  UNL1        0.0271
     65 H           2.5663    1.0081    0.0000 H       1  UNL1        0.0271
     66 H           9.6570    1.5271    0.0000 H       1  UNL1        0.0298
     67 H           3.2474   -2.0748    0.0000 H       1  UNL1        0.0238
     68 H           3.8626   -2.6996    0.0000 H       1  UNL1        0.0238
     69 H           4.4873   -2.0844    0.0000 H       1  UNL1        0.0238
     70 H           1.8038    0.5834    0.0000 H       1  UNL1        0.0308
     71 H           1.3967   -0.1033    0.0000 H       1  UNL1        0.0308
     72 H           1.4619   -1.3948    0.0000 H       1  UNL1        0.0576
     73 H           9.7977    0.8465    0.0000 H       1  UNL1        0.0232
     74 H          11.1943    2.3306    0.0000 H       1  UNL1        0.0232
     75 H          11.1401    3.2058    0.0000 H       1  UNL1        0.0232
     76 H          10.2650    3.1516    0.0000 H       1  UNL1        0.0232
     77 H          10.5827    0.4558    0.0000 H       1  UNL1        0.0232
     78 H          10.9733    1.2408    0.0000 H       1  UNL1        0.0232
     79 H           3.4816   -2.9373    0.0000 H       1  UNL1        0.1078
@<TRIPOS>BOND
     1     1    31    2
     2     2     3    1
     3     2     4    1
     4     2     8    1
     5     2    18    1
     6     3     5    1
     7     3     9    1
     8     3    19    1
     9     4     7    1
    10     4    14    1
    11     4    32    1
    12     5     6    1
    13     5    15    1
    14     5    33    1
    15     6    10    1
    16     6    11    1
    17     6    21    1
    18     7    12    1
    19     7    13    1
    20     7    22    1
    21     8    11    1
    22     8    34    1
    23     8    35    1
    24     9    12    1
    25     9    36    1
    26     9    37    1
    27    10    16    1
    28    10    23    1
    29    10    38    1
    30    11    39    1
    31    11    40    1
    32    12    41    1
    33    12    42    1
    34    13    17    1
    35    13    24    1
    36    13    43    1
    37    14    17    1
    38    14    44    1
    39    14    45    1
    40    15    20    1
    41    15    46    1
    42    15    47    1
    43    16    20    1
    44    16    25    1
    45    16    26    1
    46    17    48    1
    47    17    49    1
    48    18    50    1
    49    18    51    1
    50    18    52    1
    51    19    53    1
    52    19    54    1
    53    19    55    1
    54    20    56    1
    55    20    57    1
    56    21    58    1
    57    21    59    1
    58    21    60    1
    59    22    61    1
    60    22    62    1
    61    22    63    1
    62    23    27    1
    63    23    64    1
    64    23    65    1
    65    24    29    1
    66    24    30    1
    67    24    66    1
    68    25    28    2
    69    25    31    1
    70    26    67    1
    71    26    68    1
    72    26    69    1
    73    27    28    1
    74    27    70    1
    75    27    71    1
    76    28    72    1
    77    29    74    1
    78    29    75    1
    79    29    76    1
    80    30    73    1
    81    30    77    1
    82    30    78    1
    83    31    79    1
