@<TRIPOS>MOLECULE
IMPHY014509
 54 57 0 0 0
SMALL
GASTEIGER

@<TRIPOS>ATOM
      1 O           3.8601   -1.6602    0.0000 O.3     1  UNL1       -0.4611
      2 O           9.5589    0.4255    0.0000 O.2     1  UNL1       -0.2756
      3 O           2.1318   -1.5460    0.0000 O.2     1  UNL1       -0.2505
      4 N           4.0863    1.4008    0.0000 N.3     1  UNL1       -0.2985
      5 N           8.1852    1.5419    0.0000 N.am    1  UNL1       -0.2978
      6 C           6.1363    1.7073    0.0000 C.3     1  UNL1       -0.0091
      7 C           6.3952    2.6732    0.0000 C.3     1  UNL1       -0.0092
      8 C           4.9153    0.8416    0.0000 C.3     1  UNL1        0.0180
      9 C           5.6585    3.6558    0.0000 C.3     1  UNL1       -0.0417
     10 C           7.8268    2.4755    0.0000 C.3     1  UNL1        0.0300
     11 C           4.3619    2.3620    0.0000 C.3     1  UNL1        0.0037
     12 C           7.4080    0.9126    0.0000 C.3     1  UNL1        0.0192
     13 C           4.8587   -0.1985    0.0000 C.3     1  UNL1        0.0003
     14 C           8.4698    3.2950    0.0000 C.3     1  UNL1       -0.0336
     15 C           3.1431    0.9587    0.0000 C.3     1  UNL1        0.0025
     16 C           3.9260   -0.6623    0.0000 C.3     1  UNL1        0.1057
     17 C           3.0625   -0.0798    0.0000 C.3     1  UNL1       -0.0028
     18 C           9.4998    3.1400    0.0000 C.3     1  UNL1       -0.0431
     19 C           9.2113    1.3632    0.0000 C.2     1  UNL1        0.2158
     20 C           9.8731    2.1676    0.0000 C.3     1  UNL1        0.0242
     21 C           2.9630   -2.1020    0.0000 C.2     1  UNL1        0.3099
     22 C           2.8971   -3.0998    0.0000 C.3     1  UNL1        0.0508
     23 C           2.0000   -3.5416    0.0000 C.3     1  UNL1       -0.0525
     24 C           3.7283   -3.6558    0.0000 C.3     1  UNL1       -0.0525
     25 H           5.9163    0.8862    0.0000 H       1  UNL1        0.0331
     26 H           6.6152    3.4942    0.0000 H       1  UNL1        0.0331
     27 H           5.6200    0.3663    0.0000 H       1  UNL1        0.0467
     28 H           5.9763    4.1882    0.0000 H       1  UNL1        0.0273
     29 H           5.0454    3.7478    0.0000 H       1  UNL1        0.0273
     30 H           8.4399    2.3832    0.0000 H       1  UNL1        0.0503
     31 H           4.3569    2.9820    0.0000 H       1  UNL1        0.0430
     32 H           3.7476    2.4458    0.0000 H       1  UNL1        0.0430
     33 H           7.0235    0.4263    0.0000 H       1  UNL1        0.0468
     34 H           7.8490    0.4768    0.0000 H       1  UNL1        0.0468
     35 H           5.0357   -0.7927    0.0000 H       1  UNL1        0.0316
     36 H           5.4744   -0.1258    0.0000 H       1  UNL1        0.0316
     37 H           8.6656    3.8833    0.0000 H       1  UNL1        0.0283
     38 H           7.9237    3.5886    0.0000 H       1  UNL1        0.0283
     39 H           2.9799    1.5568    0.0000 H       1  UNL1        0.0428
     40 H           2.5259    0.9002    0.0000 H       1  UNL1        0.0428
     41 H           3.3693   -0.9352    0.0000 H       1  UNL1        0.0735
     42 H           2.4617    0.0732    0.0000 H       1  UNL1        0.0313
     43 H           2.8088   -0.6456    0.0000 H       1  UNL1        0.0313
     44 H          10.1081    3.2599    0.0000 H       1  UNL1        0.0270
     45 H           9.4858    3.7599    0.0000 H       1  UNL1        0.0270
     46 H          10.2774    1.6976    0.0000 H       1  UNL1        0.0358
     47 H          10.4053    2.4855    0.0000 H       1  UNL1        0.0358
     48 H           2.8562   -3.7185    0.0000 H       1  UNL1        0.0408
     49 H           1.7261   -2.9854    0.0000 H       1  UNL1        0.0237
     50 H           1.4438   -3.8156    0.0000 H       1  UNL1        0.0237
     51 H           2.2739   -4.0978    0.0000 H       1  UNL1        0.0237
     52 H           3.3836   -4.1711    0.0000 H       1  UNL1        0.0237
     53 H           4.2436   -4.0005    0.0000 H       1  UNL1        0.0237
     54 H           4.0730   -3.1405    0.0000 H       1  UNL1        0.0237
@<TRIPOS>BOND
     1     1    16    1
     2     1    21    1
     3     2    19    2
     4     3    21    2
     5     4     8    1
     6     4    11    1
     7     4    15    1
     8     5    10    1
     9     5    12    1
    10     5    19   am
    11     6     8    1
    12     6     9    1
    13     6    12    1
    14     6    25    1
    15     7     9    1
    16     7    10    1
    17     7    11    1
    18     7    26    1
    19     8    13    1
    20     8    27    1
    21     9    28    1
    22     9    29    1
    23    10    14    1
    24    10    30    1
    25    11    31    1
    26    11    32    1
    27    12    33    1
    28    12    34    1
    29    13    16    1
    30    13    35    1
    31    13    36    1
    32    14    18    1
    33    14    37    1
    34    14    38    1
    35    15    17    1
    36    15    39    1
    37    15    40    1
    38    16    17    1
    39    16    41    1
    40    17    42    1
    41    17    43    1
    42    18    20    1
    43    18    44    1
    44    18    45    1
    45    19    20    1
    46    20    46    1
    47    20    47    1
    48    21    22    1
    49    22    23    1
    50    22    24    1
    51    22    48    1
    52    23    49    1
    53    23    50    1
    54    23    51    1
    55    24    52    1
    56    24    53    1
    57    24    54    1
