@<TRIPOS>MOLECULE
IMPHY009119
 72 78 0 0 0
SMALL
GASTEIGER

@<TRIPOS>ATOM
      1 O           3.7998   -3.6158    0.0000 O.3     1  UNL1       -0.3634
      2 O           7.7714    2.8090    0.0000 O.3     1  UNL1       -0.3722
      3 O           2.9176   -0.0808    0.0000 O.2     1  UNL1       -0.2920
      4 O          10.1386    0.4547    0.0000 O.3     1  UNL1       -0.4606
      5 O          11.9009    0.1901    0.0000 O.2     1  UNL1       -0.2503
      6 O          12.8002    1.9662    0.0000 O.3     1  UNL1       -0.3941
      7 C           5.5321   -1.6154    0.0000 C.3     1  UNL1       -0.0314
      8 C           4.6660   -1.1154    0.0000 C.3     1  UNL1       -0.0227
      9 C           3.8000   -2.6154    0.0000 C.3     1  UNL1        0.1119
     10 C           6.4421   -1.1085    0.0000 C.3     1  UNL1       -0.0322
     11 C           6.4501   -0.0669    0.0000 C.3     1  UNL1       -0.0257
     12 C           3.8000   -1.6154    0.0000 C.3     1  UNL1        0.0648
     13 C           4.6660   -3.1154    0.0000 C.3     1  UNL1        0.0899
     14 C           5.5321   -2.6154    0.0000 C.3     1  UNL1       -0.0204
     15 C           7.4381    0.2429    0.0000 C.3     1  UNL1       -0.0271
     16 C           4.6500   -0.0738    0.0000 C.3     1  UNL1       -0.0484
     17 C           5.5480    0.4539    0.0000 C.3     1  UNL1       -0.0468
     18 C           7.4252   -1.4335    0.0000 C.3     1  UNL1       -0.0492
     19 C           8.0396   -0.6000    0.0000 C.3     1  UNL1       -0.0490
     20 C           2.9061   -3.1500    0.0000 C.3     1  UNL1       -0.0017
     21 C           7.7561    1.1910    0.0000 C.3     1  UNL1        0.0230
     22 C           6.4578    0.9331    0.0000 C.3     1  UNL1       -0.0590
     23 C           3.8000   -0.6153    0.0000 C.3     1  UNL1       -0.0495
     24 C           2.9061   -1.0807    0.0000 C.2     1  UNL1        0.1647
     25 C           9.1942    1.6159    0.0000 C.3     1  UNL1        0.1109
     26 C           2.0000   -2.6362    0.0000 C.2     1  UNL1       -0.0779
     27 C           7.1760    2.0055    0.0000 C.3     1  UNL1        0.0548
     28 C           2.0000   -1.5945    0.0000 C.2     1  UNL1       -0.0224
     29 C          10.1766    3.3652    0.0000 C.3     1  UNL1        0.0145
     30 C           9.2036    2.6158    0.0000 C.3     1  UNL1        0.0851
     31 C          11.0792    1.7713    0.0000 C.3     1  UNL1        0.1081
     32 C          11.0872    0.7714    0.0000 C.2     1  UNL1        0.3155
     33 C           9.2131    3.6158    0.0000 C.3     1  UNL1       -0.0348
     34 C          11.8835    2.3656    0.0000 C.3     1  UNL1        0.0598
     35 H           6.2649   -2.0460    0.0000 H       1  UNL1        0.0307
     36 H           5.3989   -0.6847    0.0000 H       1  UNL1        0.0314
     37 H           6.5222   -1.9547    0.0000 H       1  UNL1        0.0309
     38 H           5.0911   -3.8514    0.0000 H       1  UNL1        0.0625
     39 H           5.7441   -3.1980    0.0000 H       1  UNL1        0.0294
     40 H           6.1426   -2.5077    0.0000 H       1  UNL1        0.0294
     41 H           8.2788    0.3683    0.0000 H       1  UNL1        0.0311
     42 H           4.4319    0.5066    0.0000 H       1  UNL1        0.0268
     43 H           4.0408   -0.1893    0.0000 H       1  UNL1        0.0268
     44 H           5.9453    0.9299    0.0000 H       1  UNL1        0.0271
     45 H           5.1470    0.9268    0.0000 H       1  UNL1        0.0271
     46 H           7.1698   -1.9985    0.0000 H       1  UNL1        0.0268
     47 H           7.9602   -1.7469    0.0000 H       1  UNL1        0.0268
     48 H           8.4972   -1.0183    0.0000 H       1  UNL1        0.0268
     49 H           8.5036   -0.1888    0.0000 H       1  UNL1        0.0268
     50 H           2.5124   -3.6290    0.0000 H       1  UNL1        0.0336
     51 H           3.3107   -3.6198    0.0000 H       1  UNL1        0.0336
     52 H           6.9154    1.0660    0.0000 H       1  UNL1        0.0362
     53 H           7.0778    0.9283    0.0000 H       1  UNL1        0.0235
     54 H           6.4626    1.5530    0.0000 H       1  UNL1        0.0235
     55 H           5.8378    0.9378    0.0000 H       1  UNL1        0.0235
     56 H           4.4200   -0.6153    0.0000 H       1  UNL1        0.0240
     57 H           3.8000    0.0047    0.0000 H       1  UNL1        0.0240
     58 H           3.1800   -0.6153    0.0000 H       1  UNL1        0.0240
     59 H           9.1862    0.7659    0.0000 H       1  UNL1        0.0738
     60 H           1.4643   -2.9482    0.0000 H       1  UNL1        0.0574
     61 H           6.7192    2.4247    0.0000 H       1  UNL1        0.0564
     62 H           6.7113    1.5950    0.0000 H       1  UNL1        0.0564
     63 H           1.4643   -1.2825    0.0000 H       1  UNL1        0.0649
     64 H          10.7919    3.2895    0.0000 H       1  UNL1        0.0329
     65 H          10.0130    3.9632    0.0000 H       1  UNL1        0.0329
     66 H          11.6338    1.4943    0.0000 H       1  UNL1        0.0465
     67 H           9.8330    3.6099    0.0000 H       1  UNL1        0.0258
     68 H           9.2189    4.2358    0.0000 H       1  UNL1        0.0258
     69 H           8.5931    3.6216    0.0000 H       1  UNL1        0.0258
     70 H          12.2260    2.8823    0.0000 H       1  UNL1        0.0566
     71 H          11.4340    2.7927    0.0000 H       1  UNL1        0.0566
     72 H          13.2989    2.3346    0.0000 H       1  UNL1        0.2094
@<TRIPOS>BOND
     1     9     1    1
     2     1    13    1
     3     2    27    1
     4     2    30    1
     5     3    24    2
     6     4    25    1
     7     4    32    1
     8     5    32    2
     9     6    34    1
    10     6    72    1
    11     7     8    1
    12     7    10    1
    13     7    14    1
    14     7    35    1
    15     8    12    1
    16     8    16    1
    17     8    36    1
    18     9    12    1
    19     9    13    1
    20     9    20    1
    21    10    11    1
    22    10    18    1
    23    10    37    1
    24    11    15    1
    25    11    17    1
    26    11    22    1
    27    12    23    1
    28    12    24    1
    29    13    14    1
    30    13    38    1
    31    14    39    1
    32    14    40    1
    33    15    19    1
    34    15    21    1
    35    15    41    1
    36    16    17    1
    37    16    42    1
    38    16    43    1
    39    17    44    1
    40    17    45    1
    41    18    19    1
    42    18    46    1
    43    18    47    1
    44    19    48    1
    45    19    49    1
    46    20    26    1
    47    20    50    1
    48    20    51    1
    49    21    25    1
    50    21    27    1
    51    21    52    1
    52    22    53    1
    53    22    54    1
    54    22    55    1
    55    23    56    1
    56    23    57    1
    57    23    58    1
    58    24    28    1
    59    25    29    1
    60    25    59    1
    61    26    28    2
    62    26    60    1
    63    27    61    1
    64    27    62    1
    65    28    63    1
    66    29    30    1
    67    29    64    1
    68    29    65    1
    69    30    31    1
    70    30    33    1
    71    31    32    1
    72    31    34    1
    73    31    66    1
    74    33    67    1
    75    33    68    1
    76    33    69    1
    77    34    70    1
    78    34    71    1
