@<TRIPOS>MOLECULE
IMPHY007079
 108 107 0 0 0
SMALL
GASTEIGER

@<TRIPOS>ATOM
      1 O          15.8564   -0.5950    0.0000 O.3     1  UNL1       -0.3918
      2 C          15.8564    0.4050    0.0000 C.3     1  UNL1        0.0553
      3 C          16.7224    0.9050    0.0000 C.3     1  UNL1       -0.0269
      4 C          14.9904    0.9050    0.0000 C.3     1  UNL1       -0.0269
      5 C          17.5885    0.4050    0.0000 C.3     1  UNL1       -0.0507
      6 C          14.1244    0.4050    0.0000 C.3     1  UNL1       -0.0507
      7 C          18.4545    0.9050    0.0000 C.3     1  UNL1       -0.0530
      8 C          13.2583    0.9050    0.0000 C.3     1  UNL1       -0.0530
      9 C          19.3205    0.4050    0.0000 C.3     1  UNL1       -0.0531
     10 C          12.3923    0.4050    0.0000 C.3     1  UNL1       -0.0531
     11 C          20.1865    0.9050    0.0000 C.3     1  UNL1       -0.0531
     12 C          21.0526    0.4050    0.0000 C.3     1  UNL1       -0.0531
     13 C          11.5263    0.9050    0.0000 C.3     1  UNL1       -0.0531
     14 C          21.9186    0.9050    0.0000 C.3     1  UNL1       -0.0531
     15 C          10.6603    0.4050    0.0000 C.3     1  UNL1       -0.0531
     16 C          22.7846    0.4050    0.0000 C.3     1  UNL1       -0.0531
     17 C           9.7942    0.9050    0.0000 C.3     1  UNL1       -0.0531
     18 C          23.6506    0.9050    0.0000 C.3     1  UNL1       -0.0531
     19 C           8.9282    0.4050    0.0000 C.3     1  UNL1       -0.0531
     20 C          24.5167    0.4050    0.0000 C.3     1  UNL1       -0.0531
     21 C           8.0622    0.9050    0.0000 C.3     1  UNL1       -0.0531
     22 C          25.3827    0.9050    0.0000 C.3     1  UNL1       -0.0531
     23 C           7.1962    0.4050    0.0000 C.3     1  UNL1       -0.0531
     24 C          26.2487    0.4050    0.0000 C.3     1  UNL1       -0.0531
     25 C           6.3301    0.9050    0.0000 C.3     1  UNL1       -0.0531
     26 C          27.1147    0.9050    0.0000 C.3     1  UNL1       -0.0531
     27 C           5.4641    0.4050    0.0000 C.3     1  UNL1       -0.0531
     28 C          27.9808    0.4050    0.0000 C.3     1  UNL1       -0.0531
     29 C           4.5981    0.9050    0.0000 C.3     1  UNL1       -0.0531
     30 C          28.8468    0.9050    0.0000 C.3     1  UNL1       -0.0531
     31 C           3.7320    0.4050    0.0000 C.3     1  UNL1       -0.0533
     32 C          29.7128    0.4050    0.0000 C.3     1  UNL1       -0.0533
     33 C           2.8660    0.9050    0.0000 C.3     1  UNL1       -0.0559
     34 C          30.5788    0.9050    0.0000 C.3     1  UNL1       -0.0559
     35 C           2.0000    0.4050    0.0000 C.3     1  UNL1       -0.0653
     36 C          31.4449    0.4050    0.0000 C.3     1  UNL1       -0.0653
     37 H          15.3195    0.0950    0.0000 H       1  UNL1        0.0593
     38 H          17.1210    1.3800    0.0000 H       1  UNL1        0.0290
     39 H          16.3239    1.3800    0.0000 H       1  UNL1        0.0290
     40 H          15.3889    1.3800    0.0000 H       1  UNL1        0.0290
     41 H          14.5919    1.3800    0.0000 H       1  UNL1        0.0290
     42 H          17.1899   -0.0699    0.0000 H       1  UNL1        0.0266
     43 H          17.9870   -0.0699    0.0000 H       1  UNL1        0.0266
     44 H          13.7258   -0.0699    0.0000 H       1  UNL1        0.0266
     45 H          14.5229   -0.0699    0.0000 H       1  UNL1        0.0266
     46 H          18.8530    1.3800    0.0000 H       1  UNL1        0.0265
     47 H          18.0560    1.3800    0.0000 H       1  UNL1        0.0265
     48 H          13.6569    1.3800    0.0000 H       1  UNL1        0.0265
     49 H          12.8598    1.3800    0.0000 H       1  UNL1        0.0265
     50 H          18.9220   -0.0699    0.0000 H       1  UNL1        0.0265
     51 H          19.7190   -0.0699    0.0000 H       1  UNL1        0.0265
     52 H          11.9938   -0.0699    0.0000 H       1  UNL1        0.0265
     53 H          12.7908   -0.0699    0.0000 H       1  UNL1        0.0265
     54 H          20.5851    1.3800    0.0000 H       1  UNL1        0.0265
     55 H          19.7880    1.3800    0.0000 H       1  UNL1        0.0265
     56 H          20.6540   -0.0699    0.0000 H       1  UNL1        0.0265
     57 H          21.4511   -0.0699    0.0000 H       1  UNL1        0.0265
     58 H          11.9248    1.3800    0.0000 H       1  UNL1        0.0265
     59 H          11.1278    1.3800    0.0000 H       1  UNL1        0.0265
     60 H          22.3171    1.3800    0.0000 H       1  UNL1        0.0265
     61 H          21.5201    1.3800    0.0000 H       1  UNL1        0.0265
     62 H          10.2617   -0.0699    0.0000 H       1  UNL1        0.0265
     63 H          11.0588   -0.0699    0.0000 H       1  UNL1        0.0265
     64 H          22.3861   -0.0699    0.0000 H       1  UNL1        0.0265
     65 H          23.1831   -0.0699    0.0000 H       1  UNL1        0.0265
     66 H          10.1928    1.3800    0.0000 H       1  UNL1        0.0265
     67 H           9.3957    1.3800    0.0000 H       1  UNL1        0.0265
     68 H          24.0492    1.3800    0.0000 H       1  UNL1        0.0265
     69 H          23.2521    1.3800    0.0000 H       1  UNL1        0.0265
     70 H           8.5297   -0.0699    0.0000 H       1  UNL1        0.0265
     71 H           9.3267   -0.0699    0.0000 H       1  UNL1        0.0265
     72 H          24.1181   -0.0699    0.0000 H       1  UNL1        0.0265
     73 H          24.9152   -0.0699    0.0000 H       1  UNL1        0.0265
     74 H           8.4607    1.3800    0.0000 H       1  UNL1        0.0265
     75 H           7.6636    1.3800    0.0000 H       1  UNL1        0.0265
     76 H          25.7812    1.3800    0.0000 H       1  UNL1        0.0265
     77 H          24.9842    1.3800    0.0000 H       1  UNL1        0.0265
     78 H           6.7976   -0.0699    0.0000 H       1  UNL1        0.0265
     79 H           7.5947   -0.0699    0.0000 H       1  UNL1        0.0265
     80 H          25.8502   -0.0699    0.0000 H       1  UNL1        0.0265
     81 H          26.6472   -0.0699    0.0000 H       1  UNL1        0.0265
     82 H           6.7287    1.3800    0.0000 H       1  UNL1        0.0265
     83 H           5.9316    1.3800    0.0000 H       1  UNL1        0.0265
     84 H          27.5133    1.3800    0.0000 H       1  UNL1        0.0265
     85 H          26.7162    1.3800    0.0000 H       1  UNL1        0.0265
     86 H           5.0656   -0.0699    0.0000 H       1  UNL1        0.0265
     87 H           5.8626   -0.0699    0.0000 H       1  UNL1        0.0265
     88 H          27.5822   -0.0699    0.0000 H       1  UNL1        0.0265
     89 H          28.3793   -0.0699    0.0000 H       1  UNL1        0.0265
     90 H           4.9966    1.3800    0.0000 H       1  UNL1        0.0265
     91 H           4.1996    1.3800    0.0000 H       1  UNL1        0.0265
     92 H          29.2453    1.3800    0.0000 H       1  UNL1        0.0265
     93 H          28.4483    1.3800    0.0000 H       1  UNL1        0.0265
     94 H          15.3195   -0.9050    0.0000 H       1  UNL1        0.2098
     95 H           3.3335   -0.0699    0.0000 H       1  UNL1        0.0265
     96 H           4.1306   -0.0699    0.0000 H       1  UNL1        0.0265
     97 H          29.3143   -0.0699    0.0000 H       1  UNL1        0.0265
     98 H          30.1113   -0.0699    0.0000 H       1  UNL1        0.0265
     99 H           3.2646    1.3800    0.0000 H       1  UNL1        0.0263
    100 H           2.4675    1.3800    0.0000 H       1  UNL1        0.0263
    101 H          30.9774    1.3800    0.0000 H       1  UNL1        0.0263
    102 H          30.1803    1.3800    0.0000 H       1  UNL1        0.0263
    103 H           1.6900    0.9419    0.0000 H       1  UNL1        0.0230
    104 H           1.4631    0.0950    0.0000 H       1  UNL1        0.0230
    105 H           2.3100   -0.1319    0.0000 H       1  UNL1        0.0230
    106 H          31.1349   -0.1319    0.0000 H       1  UNL1        0.0230
    107 H          31.9818    0.0950    0.0000 H       1  UNL1        0.0230
    108 H          31.7549    0.9419    0.0000 H       1  UNL1        0.0230
@<TRIPOS>BOND
     1     1     2    1
     2     1    94    1
     3     2     3    1
     4     2     4    1
     5     2    37    1
     6     3     5    1
     7     3    38    1
     8     3    39    1
     9     4     6    1
    10     4    40    1
    11     4    41    1
    12     5     7    1
    13     5    42    1
    14     5    43    1
    15     6     8    1
    16     6    44    1
    17     6    45    1
    18     7     9    1
    19     7    46    1
    20     7    47    1
    21     8    10    1
    22     8    48    1
    23     8    49    1
    24     9    11    1
    25     9    50    1
    26     9    51    1
    27    10    13    1
    28    10    52    1
    29    10    53    1
    30    11    12    1
    31    11    54    1
    32    11    55    1
    33    12    14    1
    34    12    56    1
    35    12    57    1
    36    13    15    1
    37    13    58    1
    38    13    59    1
    39    14    16    1
    40    14    60    1
    41    14    61    1
    42    15    17    1
    43    15    62    1
    44    15    63    1
    45    16    18    1
    46    16    64    1
    47    16    65    1
    48    17    19    1
    49    17    66    1
    50    17    67    1
    51    18    20    1
    52    18    68    1
    53    18    69    1
    54    19    21    1
    55    19    70    1
    56    19    71    1
    57    20    22    1
    58    20    72    1
    59    20    73    1
    60    21    23    1
    61    21    74    1
    62    21    75    1
    63    22    24    1
    64    22    76    1
    65    22    77    1
    66    23    25    1
    67    23    78    1
    68    23    79    1
    69    24    26    1
    70    24    80    1
    71    24    81    1
    72    25    27    1
    73    25    82    1
    74    25    83    1
    75    26    28    1
    76    26    84    1
    77    26    85    1
    78    27    29    1
    79    27    86    1
    80    27    87    1
    81    28    30    1
    82    28    88    1
    83    28    89    1
    84    29    31    1
    85    29    90    1
    86    29    91    1
    87    30    32    1
    88    30    92    1
    89    30    93    1
    90    31    33    1
    91    31    95    1
    92    31    96    1
    93    32    34    1
    94    32    97    1
    95    32    98    1
    96    33    35    1
    97    33    99    1
    98    33   100    1
    99    34    36    1
   100    34   101    1
   101    34   102    1
   102    35   103    1
   103    35   104    1
   104    35   105    1
   105    36   106    1
   106    36   107    1
   107    36   108    1
