@<TRIPOS>MOLECULE
IMPHY004718
 37 39 0 0 0
SMALL
GASTEIGER

@<TRIPOS>ATOM
      1 O           5.5301   -0.1071    0.0000 O.2     1  UNL1       -0.4545
      2 O           2.0000    1.9171    0.0000 O.3     1  UNL1       -0.4914
      3 O           2.0000   -0.1312    0.0000 O.3     1  UNL1       -0.5032
      4 O           5.5301    2.8929    0.0000 O.2     1  UNL1       -0.2870
      5 O           9.8602   -1.6071    0.0000 O.3     1  UNL1       -0.4915
      6 O           8.1282   -2.6071    0.0000 O.3     1  UNL1       -0.5033
      7 C           4.6641    1.3929    0.0000 C.ar    1  UNL1        0.0677
      8 C           4.6641    0.3929    0.0000 C.ar    1  UNL1        0.1429
      9 C           6.3961    0.3929    0.0000 C.ar    1  UNL1        0.1393
     10 C           7.2622   -0.1071    0.0000 C.ar    1  UNL1        0.0211
     11 C           5.5301    1.8929    0.0000 C.ar    1  UNL1        0.1932
     12 C           6.3961    1.3929    0.0000 C.ar    1  UNL1        0.0287
     13 C           3.7702    1.9276    0.0000 C.ar    1  UNL1       -0.0020
     14 C           3.7702   -0.1417    0.0000 C.ar    1  UNL1        0.0265
     15 C           2.8641    1.4137    0.0000 C.ar    1  UNL1        0.1622
     16 C           2.8641    0.3721    0.0000 C.ar    1  UNL1        0.1620
     17 C           7.2622   -1.1071    0.0000 C.ar    1  UNL1       -0.0059
     18 C           8.1282    0.3929    0.0000 C.ar    1  UNL1       -0.0474
     19 C           8.1282   -1.6071    0.0000 C.ar    1  UNL1        0.1591
     20 C           8.9942   -1.1071    0.0000 C.ar    1  UNL1        0.1613
     21 C           8.9942   -0.1071    0.0000 C.ar    1  UNL1       -0.0156
     22 C           2.0038    2.9171    0.0000 C.3     1  UNL1        0.0790
     23 C          10.7263   -1.1071    0.0000 C.3     1  UNL1        0.0790
     24 H           6.9331    1.7029    0.0000 H       1  UNL1        0.0693
     25 H           3.7773    2.5476    0.0000 H       1  UNL1        0.0663
     26 H           3.7773   -0.7617    0.0000 H       1  UNL1        0.0692
     27 H           6.7252   -1.4171    0.0000 H       1  UNL1        0.0662
     28 H           8.1282    1.0129    0.0000 H       1  UNL1        0.0626
     29 H           9.5312    0.2029    0.0000 H       1  UNL1        0.0655
     30 H           2.0024   -0.7512    0.0000 H       1  UNL1        0.2923
     31 H           2.6238    2.9147    0.0000 H       1  UNL1        0.0660
     32 H           2.0062    3.5371    0.0000 H       1  UNL1        0.0660
     33 H           1.3839    2.9195    0.0000 H       1  UNL1        0.0660
     34 H           7.5913   -2.9171    0.0000 H       1  UNL1        0.2923
     35 H          11.0363   -1.6440    0.0000 H       1  UNL1        0.0660
     36 H          11.2632   -0.7971    0.0000 H       1  UNL1        0.0660
     37 H          10.4163   -0.5701    0.0000 H       1  UNL1        0.0660
@<TRIPOS>BOND
     1     1     8   ar
     2     1     9   ar
     3     2    15    1
     4     2    22    1
     5     3    16    1
     6     3    30    1
     7     4    11    2
     8     5    20    1
     9     5    23    1
    10     6    19    1
    11     6    34    1
    12     7     8   ar
    13     7    11   ar
    14     7    13   ar
    15     8    14   ar
    16     9    10    1
    17     9    12   ar
    18    10    17   ar
    19    10    18   ar
    20    11    12   ar
    21    12    24    1
    22    13    15   ar
    23    13    25    1
    24    14    16   ar
    25    14    26    1
    26    15    16   ar
    27    17    19   ar
    28    17    27    1
    29    18    21   ar
    30    18    28    1
    31    19    20   ar
    32    20    21   ar
    33    21    29    1
    34    22    31    1
    35    22    32    1
    36    22    33    1
    37    23    35    1
    38    23    36    1
    39    23    37    1
