@<TRIPOS>MOLECULE
IMPHY006614
 12 12 0 0 0
SMALL
GASTEIGER

@<TRIPOS>ATOM
      1 O           2.8090   -0.3239    0.0000 O.2     1  UNL1       -0.4564
      2 O           4.7770   -1.0233    0.0000 O.3     1  UNL1       -0.4750
      3 O           5.3122    0.6240    0.0000 O.2     1  UNL1       -0.2417
      4 C           3.6180    0.2638    0.0000 C.ar    1  UNL1        0.2110
      5 C           3.3090    1.2149    0.0000 C.ar    1  UNL1       -0.0093
      6 C           2.3090    1.2149    0.0000 C.ar    1  UNL1       -0.0231
      7 C           2.0000    0.2638    0.0000 C.ar    1  UNL1        0.0929
      8 C           4.5691   -0.0452    0.0000 C.2     1  UNL1        0.3725
      9 H           3.6734    1.7165    0.0000 H       1  UNL1        0.0657
     10 H           1.9446    1.7165    0.0000 H       1  UNL1        0.0649
     11 H           1.4103    0.0723    0.0000 H       1  UNL1        0.1029
     12 H           5.3667   -1.2149    0.0000 H       1  UNL1        0.2955
@<TRIPOS>BOND
     1     1     4   ar
     2     1     7   ar
     3     2     8    1
     4     2    12    1
     5     3     8    2
     6     4     5   ar
     7     4     8    1
     8     5     6   ar
     9     5     9    1
    10     6     7   ar
    11     6    10    1
    12     7    11    1
