@<TRIPOS>MOLECULE
IMPHY013218
 51 54 0 0 0
SMALL
GASTEIGER

@<TRIPOS>ATOM
      1 O           5.1350   -0.1945    0.0000 O.3     1  UNL1       -0.3313
      2 O           6.8671   -0.1945    0.0000 O.3     1  UNL1       -0.4599
      3 O           5.1350   -3.1945    0.0000 O.3     1  UNL1       -0.3864
      4 O           3.4030   -2.1945    0.0000 O.3     1  UNL1       -0.3865
      5 O           6.8671   -2.1945    0.0000 O.3     1  UNL1       -0.3829
      6 O           2.5369   -0.6945    0.0000 O.3     1  UNL1       -0.3924
      7 O           8.6504    2.8196    0.0000 O.2     1  UNL1       -0.4618
      8 O           5.1208    2.8846    0.0000 O.3     1  UNL1       -0.5065
      9 O           8.6158   -0.1802    0.0000 O.2     1  UNL1       -0.2863
     10 O          12.9398   -0.7302    0.0000 O.3     1  UNL1       -0.5068
     11 C           5.1350   -2.1945    0.0000 C.3     1  UNL1        0.1152
     12 C           4.2690   -1.6945    0.0000 C.3     1  UNL1        0.1120
     13 C           6.0010   -1.6945    0.0000 C.3     1  UNL1        0.1454
     14 C           4.2690   -0.6945    0.0000 C.3     1  UNL1        0.1140
     15 C           6.0010   -0.6945    0.0000 C.3     1  UNL1        0.2308
     16 C           3.4030   -0.1945    0.0000 C.3     1  UNL1        0.0731
     17 C           6.8671    0.8055    0.0000 C.ar    1  UNL1        0.1418
     18 C           7.7671    1.3298    0.0000 C.ar    1  UNL1        0.1064
     19 C           5.9670    1.3298    0.0000 C.ar    1  UNL1        0.0226
     20 C           7.7787    2.3297    0.0000 C.ar    1  UNL1        0.1454
     21 C           8.6273    0.8198    0.0000 C.ar    1  UNL1        0.2037
     22 C           5.9790    2.3713    0.0000 C.ar    1  UNL1        0.1239
     23 C           6.8910    2.8746    0.0000 C.ar    1  UNL1        0.0231
     24 C           9.4991    1.3097    0.0000 C.ar    1  UNL1        0.0644
     25 C           9.5106    2.3097    0.0000 C.ar    1  UNL1        0.1038
     26 C          10.3592    0.7997    0.0000 C.ar    1  UNL1       -0.0110
     27 C          11.2310    1.2897    0.0000 C.ar    1  UNL1       -0.0504
     28 C          10.3477   -0.2002    0.0000 C.ar    1  UNL1       -0.0504
     29 C          12.0912    0.7797    0.0000 C.ar    1  UNL1       -0.0196
     30 C          11.2079   -0.7102    0.0000 C.ar    1  UNL1       -0.0196
     31 C          12.0796   -0.2202    0.0000 C.ar    1  UNL1        0.1169
     32 H           4.5981   -2.5045    0.0000 H       1  UNL1        0.0648
     33 H           4.2690   -2.3145    0.0000 H       1  UNL1        0.0647
     34 H           6.0010   -2.3145    0.0000 H       1  UNL1        0.0683
     35 H           4.2690   -0.0745    0.0000 H       1  UNL1        0.0647
     36 H           6.0010   -0.0745    0.0000 H       1  UNL1        0.1084
     37 H           3.8015    0.2804    0.0000 H       1  UNL1        0.0584
     38 H           3.0044    0.2804    0.0000 H       1  UNL1        0.0584
     39 H           4.5981   -3.5045    0.0000 H       1  UNL1        0.2100
     40 H           3.4030   -2.8145    0.0000 H       1  UNL1        0.2100
     41 H           6.8671   -2.8145    0.0000 H       1  UNL1        0.2102
     42 H           2.0000   -0.3845    0.0000 H       1  UNL1        0.2095
     43 H           5.4277    1.0239    0.0000 H       1  UNL1        0.0691
     44 H           6.9053    3.4945    0.0000 H       1  UNL1        0.0691
     45 H          10.0511    2.6134    0.0000 H       1  UNL1        0.1037
     46 H          11.2382    1.9097    0.0000 H       1  UNL1        0.0625
     47 H           9.8072   -0.5040    0.0000 H       1  UNL1        0.0625
     48 H           5.1304    3.5045    0.0000 H       1  UNL1        0.2921
     49 H          12.6317    1.0835    0.0000 H       1  UNL1        0.0654
     50 H          11.2007   -1.3301    0.0000 H       1  UNL1        0.0654
     51 H          13.4803   -0.4264    0.0000 H       1  UNL1        0.2921
@<TRIPOS>BOND
     1     1    14    1
     2     1    15    1
     3     2    15    1
     4     2    17    1
     5     3    11    1
     6     3    39    1
     7     4    12    1
     8     4    40    1
     9     5    13    1
    10     5    41    1
    11     6    16    1
    12     6    42    1
    13     7    20   ar
    14     7    25   ar
    15     8    22    1
    16     8    48    1
    17     9    21    2
    18    10    31    1
    19    10    51    1
    20    11    12    1
    21    11    13    1
    22    11    32    1
    23    12    14    1
    24    12    33    1
    25    13    15    1
    26    13    34    1
    27    14    16    1
    28    14    35    1
    29    15    36    1
    30    16    37    1
    31    16    38    1
    32    17    18   ar
    33    17    19   ar
    34    18    20   ar
    35    18    21   ar
    36    19    22   ar
    37    19    43    1
    38    20    23   ar
    39    21    24   ar
    40    22    23   ar
    41    23    44    1
    42    24    25   ar
    43    24    26    1
    44    25    45    1
    45    26    27   ar
    46    26    28   ar
    47    27    29   ar
    48    27    46    1
    49    28    30   ar
    50    28    47    1
    51    29    31   ar
    52    29    49    1
    53    30    31   ar
    54    30    50    1
