@<TRIPOS>MOLECULE
IMPHY000743
 51 54 0 0 0
SMALL
GASTEIGER

@<TRIPOS>ATOM
      1 O           5.1350   -1.3729    0.0000 O.3     1  UNL1       -0.3313
      2 O           6.8671   -1.3729    0.0000 O.3     1  UNL1       -0.4606
      3 O           5.1350   -4.3729    0.0000 O.3     1  UNL1       -0.3864
      4 O           3.4030   -3.3729    0.0000 O.3     1  UNL1       -0.3865
      5 O           6.8671   -3.3729    0.0000 O.3     1  UNL1       -0.3829
      6 O           2.5369   -1.8729    0.0000 O.3     1  UNL1       -0.3924
      7 O           8.6230    1.6896    0.0000 O.2     1  UNL1       -0.4544
      8 O           5.1208    1.7062    0.0000 O.3     1  UNL1       -0.5058
      9 O           6.0308    3.1996    0.0000 O.2     1  UNL1       -0.2869
     10 O          12.0910    2.6762    0.0000 O.3     1  UNL1       -0.5067
     11 C           5.1350   -3.3729    0.0000 C.3     1  UNL1        0.1152
     12 C           4.2690   -2.8729    0.0000 C.3     1  UNL1        0.1120
     13 C           6.0010   -2.8729    0.0000 C.3     1  UNL1        0.1454
     14 C           4.2690   -1.8729    0.0000 C.3     1  UNL1        0.1140
     15 C           6.0010   -1.8729    0.0000 C.3     1  UNL1        0.2308
     16 C           3.4030   -1.3729    0.0000 C.3     1  UNL1        0.0731
     17 C           6.8671   -0.3729    0.0000 C.ar    1  UNL1        0.1310
     18 C           7.7671    0.1514    0.0000 C.ar    1  UNL1        0.0235
     19 C           5.9670    0.1514    0.0000 C.ar    1  UNL1        0.0226
     20 C           7.7551    1.1930    0.0000 C.ar    1  UNL1        0.1462
     21 C           6.8910    1.6963    0.0000 C.ar    1  UNL1        0.1055
     22 C           5.9790    1.1930    0.0000 C.ar    1  UNL1        0.1347
     23 C           6.8948    2.6963    0.0000 C.ar    1  UNL1        0.1966
     24 C           8.6269    2.6896    0.0000 C.ar    1  UNL1        0.1393
     25 C           7.7628    3.1929    0.0000 C.ar    1  UNL1        0.0288
     26 C           9.4948    3.1862    0.0000 C.ar    1  UNL1        0.0208
     27 C          10.3589    2.6829    0.0000 C.ar    1  UNL1       -0.0095
     28 C           9.4987    4.1862    0.0000 C.ar    1  UNL1       -0.0509
     29 C          11.2269    3.1796    0.0000 C.ar    1  UNL1        0.1175
     30 C          10.3666    4.6829    0.0000 C.ar    1  UNL1       -0.0576
     31 C          11.2307    4.1796    0.0000 C.ar    1  UNL1       -0.0201
     32 H           5.6720   -3.6829    0.0000 H       1  UNL1        0.0648
     33 H           4.2690   -3.4929    0.0000 H       1  UNL1        0.0647
     34 H           6.5380   -2.5629    0.0000 H       1  UNL1        0.0683
     35 H           4.2690   -1.2529    0.0000 H       1  UNL1        0.0647
     36 H           6.0010   -1.2529    0.0000 H       1  UNL1        0.1084
     37 H           3.8015   -0.8980    0.0000 H       1  UNL1        0.0584
     38 H           3.0044   -0.8980    0.0000 H       1  UNL1        0.0584
     39 H           4.5981   -4.6829    0.0000 H       1  UNL1        0.2100
     40 H           3.4030   -3.9929    0.0000 H       1  UNL1        0.2100
     41 H           6.8671   -3.9929    0.0000 H       1  UNL1        0.2102
     42 H           2.0000   -1.5629    0.0000 H       1  UNL1        0.2095
     43 H           8.3064   -0.1545    0.0000 H       1  UNL1        0.0691
     44 H           5.4277   -0.1545    0.0000 H       1  UNL1        0.0691
     45 H           7.7652    3.8129    0.0000 H       1  UNL1        0.0693
     46 H           4.5792    1.4046    0.0000 H       1  UNL1        0.2922
     47 H          10.3565    2.0629    0.0000 H       1  UNL1        0.0661
     48 H           8.9630    4.4983    0.0000 H       1  UNL1        0.0625
     49 H          10.3690    5.3029    0.0000 H       1  UNL1        0.0619
     50 H          11.7688    4.4875    0.0000 H       1  UNL1        0.0654
     51 H          12.6291    2.9842    0.0000 H       1  UNL1        0.2921
@<TRIPOS>BOND
     1     1    14    1
     2     1    15    1
     3    15     2    1
     4     2    17    1
     5    11     3    1
     6     3    39    1
     7    12     4    1
     8     4    40    1
     9    13     5    1
    10     5    41    1
    11     6    16    1
    12     6    42    1
    13     7    20   ar
    14     7    24   ar
    15     8    22    1
    16     8    46    1
    17     9    23    2
    18    10    29    1
    19    10    51    1
    20    11    12    1
    21    11    13    1
    22    11    32    1
    23    12    14    1
    24    12    33    1
    25    13    15    1
    26    13    34    1
    27    14    16    1
    28    14    35    1
    29    15    36    1
    30    16    37    1
    31    16    38    1
    32    17    18   ar
    33    17    19   ar
    34    18    20   ar
    35    18    43    1
    36    19    22   ar
    37    19    44    1
    38    20    21   ar
    39    21    22   ar
    40    21    23   ar
    41    23    25   ar
    42    24    25   ar
    43    24    26    1
    44    25    45    1
    45    26    27   ar
    46    26    28   ar
    47    27    29   ar
    48    27    47    1
    49    28    30   ar
    50    28    48    1
    51    29    31   ar
    52    30    31   ar
    53    30    49    1
    54    31    50    1
