@<TRIPOS>MOLECULE
IMPHY010904
 44 43 0 0 0
SMALL
GASTEIGER

@<TRIPOS>ATOM
      1 O           9.4651    1.8100    0.0000 O.3     1  UNL1       -0.4795
      2 O           4.2690    0.8100    0.0000 O.3     1  UNL1       -0.3806
      3 OXT         8.5991    3.3100    0.0000 O.2     1  UNL1       -0.2492
      4 O          12.0632   -0.6900    0.0000 O.3     1  UNL1       -0.3949
      5 O          10.3312   -2.6900    0.0000 O.3     1  UNL1       -0.4795
      6 OXT         8.5991   -2.6900    0.0000 O.2     1  UNL1       -0.2492
      7 O           2.5369    1.8100    0.0000 O.3     1  UNL1       -0.4788
      8 O           3.4030    3.3100    0.0000 O.2     1  UNL1       -0.2481
      9 N           6.8671    2.3100    0.0000 N.3     1  UNL1       -0.3040
     10 N           8.5991   -0.6900    0.0000 N.3     1  UNL1       -0.3040
     11 CA          7.7331    1.8100    0.0000 C.3     1  UNL1        0.1069
     12 C           7.7331    0.8100    0.0000 C.3     1  UNL1       -0.0146
     13 C           8.5991    0.3100    0.0000 C.3     1  UNL1       -0.0014
     14 CA          9.4651   -1.1900    0.0000 C.3     1  UNL1        0.1078
     15 C           6.0010    1.8100    0.0000 C.3     1  UNL1       -0.0005
     16 C           5.1350    2.3100    0.0000 C.3     1  UNL1       -0.0038
     17 C          10.3312   -0.6900    0.0000 C.3     1  UNL1       -0.0039
     18 C           8.5991    2.3100    0.0000 C.2     1  UNL1        0.3220
     19 C           4.2690    1.8100    0.0000 C.3     1  UNL1        0.1525
     20 C          11.1972   -1.1900    0.0000 C.3     1  UNL1        0.0461
     21 C           9.4651   -2.1900    0.0000 C.2     1  UNL1        0.3220
     22 C           3.4030    2.3100    0.0000 C.2     1  UNL1        0.3337
     23 HA          7.7331    2.4300    0.0000 H       1  UNL1        0.0576
     24 H           7.1225    0.9177    0.0000 H       1  UNL1        0.0298
     25 H           7.5210    0.2274    0.0000 H       1  UNL1        0.0298
     26 H           9.2097    0.2023    0.0000 H       1  UNL1        0.0425
     27 H           8.8112    0.8926    0.0000 H       1  UNL1        0.0425
     28 HA          9.4651   -0.5700    0.0000 H       1  UNL1        0.0577
     29 H           6.8671    2.9300    0.0000 H       1  UNL1        0.1227
     30 H           8.0622   -1.0000    0.0000 H       1  UNL1        0.1227
     31 H           5.6025    1.3350    0.0000 H       1  UNL1        0.0425
     32 H           6.3996    1.3350    0.0000 H       1  UNL1        0.0425
     33 H           5.5335    2.7849    0.0000 H       1  UNL1        0.0308
     34 H           4.7365    2.7849    0.0000 H       1  UNL1        0.0308
     35 H          10.7297   -0.2151    0.0000 H       1  UNL1        0.0308
     36 H           9.9326   -0.2151    0.0000 H       1  UNL1        0.0308
     37 H           4.8059    1.5000    0.0000 H       1  UNL1        0.0710
     38 H          10.7987   -1.6650    0.0000 H       1  UNL1        0.0558
     39 H          11.5957   -1.6650    0.0000 H       1  UNL1        0.0558
     40 H          10.0021    2.1200    0.0000 H       1  UNL1        0.2951
     41 H           3.7320    0.5000    0.0000 H       1  UNL1        0.2105
     42 H          12.6002   -1.0000    0.0000 H       1  UNL1        0.2094
     43 H          10.3312   -3.3100    0.0000 H       1  UNL1        0.2951
     44 H           2.0000    2.1200    0.0000 H       1  UNL1        0.2951
@<TRIPOS>BOND
     1     1    18    1
     2     1    40    1
     3    19     2    1
     4     2    41    1
     5     3    18    2
     6     4    20    1
     7     4    42    1
     8     5    21    1
     9     5    43    1
    10     6    21    2
    11     7    22    1
    12     7    44    1
    13     8    22    2
    14    11     9    1
    15     9    15    1
    16     9    29    1
    17    10    13    1
    18    14    10    1
    19    10    30    1
    20    11    12    1
    21    11    18    1
    22    11    23    1
    23    12    13    1
    24    12    24    1
    25    12    25    1
    26    13    26    1
    27    13    27    1
    28    14    17    1
    29    14    21    1
    30    14    28    1
    31    15    16    1
    32    15    31    1
    33    15    32    1
    34    16    19    1
    35    16    33    1
    36    16    34    1
    37    17    20    1
    38    17    35    1
    39    17    36    1
    40    19    22    1
    41    19    37    1
    42    20    38    1
    43    20    39    1
