@<TRIPOS>MOLECULE
IMPHY009836
 32 32 0 0 0
SMALL
GASTEIGER

@<TRIPOS>ATOM
      1 O           2.5369    0.3450    0.0000 O.3     1  UNL1       -0.3914
      2 O           4.2690    2.3450    0.0000 O.3     1  UNL1       -0.3888
      3 C           4.2690    0.3450    0.0000 C.3     1  UNL1        0.0134
      4 C           3.4030   -0.1550    0.0000 C.3     1  UNL1        0.0609
      5 C           5.1350   -0.1550    0.0000 C.3     1  UNL1       -0.0450
      6 C           4.2690   -1.6550    0.0000 C.3     1  UNL1       -0.0415
      7 C           3.4030   -1.1550    0.0000 C.3     1  UNL1       -0.0239
      8 C           5.1350   -1.1550    0.0000 C.3     1  UNL1       -0.0500
      9 C           4.2690    1.3450    0.0000 C.3     1  UNL1        0.0657
     10 C           4.2690   -2.6550    0.0000 C.3     1  UNL1       -0.0623
     11 C           5.2690    1.3450    0.0000 C.3     1  UNL1       -0.0360
     12 C           3.2690    1.3450    0.0000 C.3     1  UNL1       -0.0360
     13 H           4.8059    0.6550    0.0000 H       1  UNL1        0.0353
     14 H           3.4030    0.4650    0.0000 H       1  UNL1        0.0597
     15 H           5.7456   -0.2627    0.0000 H       1  UNL1        0.0270
     16 H           5.3471    0.4276    0.0000 H       1  UNL1        0.0270
     17 H           4.8059   -1.9650    0.0000 H       1  UNL1        0.0299
     18 H           2.7924   -1.0473    0.0000 H       1  UNL1        0.0293
     19 H           3.1909   -1.7376    0.0000 H       1  UNL1        0.0293
     20 H           5.3471   -1.7376    0.0000 H       1  UNL1        0.0268
     21 H           5.7456   -1.0473    0.0000 H       1  UNL1        0.0268
     22 H           3.6490   -2.6550    0.0000 H       1  UNL1        0.0232
     23 H           4.2690   -3.2750    0.0000 H       1  UNL1        0.0232
     24 H           4.8890   -2.6550    0.0000 H       1  UNL1        0.0232
     25 H           5.2690    0.7250    0.0000 H       1  UNL1        0.0257
     26 H           5.8890    1.3450    0.0000 H       1  UNL1        0.0257
     27 H           5.2690    1.9650    0.0000 H       1  UNL1        0.0257
     28 H           3.2690    1.9650    0.0000 H       1  UNL1        0.0257
     29 H           2.6490    1.3450    0.0000 H       1  UNL1        0.0257
     30 H           3.2690    0.7250    0.0000 H       1  UNL1        0.0257
     31 H           2.0000    0.0350    0.0000 H       1  UNL1        0.2098
     32 H           4.8059    2.6550    0.0000 H       1  UNL1        0.2101
@<TRIPOS>BOND
     1     1     4    1
     2     1    31    1
     3     2     9    1
     4     2    32    1
     5     3     4    1
     6     3     5    1
     7     3     9    1
     8     3    13    1
     9     4     7    1
    10     4    14    1
    11     5     8    1
    12     5    15    1
    13     5    16    1
    14     6     7    1
    15     6     8    1
    16     6    10    1
    17     6    17    1
    18     7    18    1
    19     7    19    1
    20     8    20    1
    21     8    21    1
    22     9    11    1
    23     9    12    1
    24    10    22    1
    25    10    23    1
    26    10    24    1
    27    11    25    1
    28    11    26    1
    29    11    27    1
    30    12    28    1
    31    12    29    1
    32    12    30    1
