@<TRIPOS>MOLECULE
IMPHY010895
 83 87 0 0 0
SMALL
GASTEIGER

@<TRIPOS>ATOM
      1 O           2.5357   -2.1574    0.0000 O.3     1  UNL1       -0.3912
      2 C           7.0628   -0.6051    0.0000 C.3     1  UNL1       -0.0231
      3 C           7.9288   -0.1051    0.0000 C.3     1  UNL1       -0.0231
      4 C           6.1968   -0.1051    0.0000 C.3     1  UNL1       -0.0294
      5 C           7.9288    0.8949    0.0000 C.3     1  UNL1       -0.0294
      6 C           5.2868   -0.6119    0.0000 C.3     1  UNL1       -0.0252
      7 C           8.8228    1.4296    0.0000 C.3     1  UNL1       -0.0254
      8 C           5.2787   -1.6535    0.0000 C.3     1  UNL1       -0.0278
      9 C           9.7288    0.9157    0.0000 C.3     1  UNL1       -0.0302
     10 C           7.0789   -1.6466    0.0000 C.3     1  UNL1       -0.0466
     11 C           6.1968    0.8949    0.0000 C.3     1  UNL1       -0.0489
     12 C           8.8228   -0.6397    0.0000 C.3     1  UNL1       -0.0466
     13 C           7.0628    1.3949    0.0000 C.3     1  UNL1       -0.0489
     14 C           6.1808   -2.1744    0.0000 C.3     1  UNL1       -0.0486
     15 C           9.7288   -0.1259    0.0000 C.3     1  UNL1       -0.0487
     16 C           4.3433   -2.2032    0.0000 C.3     1  UNL1       -0.0056
     17 C          10.6726    1.4510    0.0000 C.3     1  UNL1       -0.0315
     18 C           4.3599   -0.0478    0.0000 C.3     1  UNL1       -0.0447
     19 C           8.7977    2.5143    0.0000 C.3     1  UNL1       -0.0471
     20 C           7.7056   -1.3711    0.0000 C.3     1  UNL1       -0.0588
     21 C           8.2709   -1.0447    0.0000 C.3     1  UNL1       -0.0588
     22 C           5.2945    0.3880    0.0000 C.3     1  UNL1       -0.0590
     23 C           7.9529    1.9229    0.0000 C.3     1  UNL1       -0.0590
     24 C           3.4037   -1.6608    0.0000 C.3     1  UNL1        0.0606
     25 C           3.4120   -0.5758    0.0000 C.3     1  UNL1       -0.0258
     26 C          10.6726    2.5360    0.0000 C.3     1  UNL1       -0.0476
     27 C           9.7288    3.0712    0.0000 C.3     1  UNL1       -0.0521
     28 C           3.8467   -3.0712    0.0000 C.3     1  UNL1       -0.0572
     29 C           4.8466   -3.0673    0.0000 C.3     1  UNL1       -0.0572
     30 C          11.6726    1.4471    0.0000 C.3     1  UNL1       -0.0595
     31 C          11.1693    0.5830    0.0000 C.3     1  UNL1       -0.0595
     32 H           6.9329    0.3199    0.0000 H       1  UNL1        0.0312
     33 H           8.6682    0.4756    0.0000 H       1  UNL1        0.0312
     34 H           5.2820   -2.5035    0.0000 H       1  UNL1        0.0312
     35 H          10.4633    0.4879    0.0000 H       1  UNL1        0.0311
     36 H           7.2969   -2.2270    0.0000 H       1  UNL1        0.0271
     37 H           7.6880   -1.5311    0.0000 H       1  UNL1        0.0271
     38 H           5.9847    1.4775    0.0000 H       1  UNL1        0.0268
     39 H           5.5862    0.7873    0.0000 H       1  UNL1        0.0268
     40 H           8.4182   -1.1095    0.0000 H       1  UNL1        0.0271
     41 H           9.2164   -1.1188    0.0000 H       1  UNL1        0.0271
     42 H           7.4613    1.8699    0.0000 H       1  UNL1        0.0268
     43 H           6.6643    1.8699    0.0000 H       1  UNL1        0.0268
     44 H           5.7835   -2.6503    0.0000 H       1  UNL1        0.0268
     45 H           6.5818   -2.6472    0.0000 H       1  UNL1        0.0268
     46 H           9.9379   -0.7096    0.0000 H       1  UNL1        0.0268
     47 H          10.3397   -0.0198    0.0000 H       1  UNL1        0.0268
     48 H           4.7681    0.4188    0.0000 H       1  UNL1        0.0271
     49 H           3.9700    0.4342    0.0000 H       1  UNL1        0.0271
     50 H           8.5752    3.0930    0.0000 H       1  UNL1        0.0271
     51 H           8.1894    2.3941    0.0000 H       1  UNL1        0.0271
     52 H           7.2306   -1.7697    0.0000 H       1  UNL1        0.0235
     53 H           8.1041   -1.8461    0.0000 H       1  UNL1        0.0235
     54 H           8.1805   -0.9726    0.0000 H       1  UNL1        0.0235
     55 H           7.6884   -1.2568    0.0000 H       1  UNL1        0.0235
     56 H           8.4830   -1.6273    0.0000 H       1  UNL1        0.0235
     57 H           8.8535   -0.8326    0.0000 H       1  UNL1        0.0235
     58 H           5.9145    0.3833    0.0000 H       1  UNL1        0.0235
     59 H           5.2993    1.0080    0.0000 H       1  UNL1        0.0235
     60 H           4.6745    0.3928    0.0000 H       1  UNL1        0.0235
     61 H           8.2588    2.4622    0.0000 H       1  UNL1        0.0235
     62 H           7.4136    2.2287    0.0000 H       1  UNL1        0.0235
     63 H           7.6471    1.3836    0.0000 H       1  UNL1        0.0235
     64 H           3.4025   -2.2808    0.0000 H       1  UNL1        0.0599
     65 H           3.2075    0.0095    0.0000 H       1  UNL1        0.0290
     66 H           2.8004   -0.6772    0.0000 H       1  UNL1        0.0290
     67 H          11.2835    2.4299    0.0000 H       1  UNL1        0.0271
     68 H          10.8817    3.1197    0.0000 H       1  UNL1        0.0271
     69 H          10.1225    3.5502    0.0000 H       1  UNL1        0.0266
     70 H           9.3242    3.5410    0.0000 H       1  UNL1        0.0266
     71 H           3.3085   -2.7633    0.0000 H       1  UNL1        0.0236
     72 H           3.5387   -3.6093    0.0000 H       1  UNL1        0.0236
     73 H           4.3848   -3.3791    0.0000 H       1  UNL1        0.0236
     74 H           4.3109   -3.3794    0.0000 H       1  UNL1        0.0236
     75 H           5.1587   -3.6031    0.0000 H       1  UNL1        0.0236
     76 H           5.3824   -2.7553    0.0000 H       1  UNL1        0.0236
     77 H          11.6702    0.8271    0.0000 H       1  UNL1        0.0235
     78 H          12.2926    1.4447    0.0000 H       1  UNL1        0.0235
     79 H          11.6750    2.0671    0.0000 H       1  UNL1        0.0235
     80 H          10.6311    0.2751    0.0000 H       1  UNL1        0.0235
     81 H          11.4772    0.0449    0.0000 H       1  UNL1        0.0235
     82 H          11.7074    0.8910    0.0000 H       1  UNL1        0.0235
     83 H           2.0000   -1.8454    0.0000 H       1  UNL1        0.2098
@<TRIPOS>BOND
     1    24     1    1
     2     1    83    1
     3     2     3    1
     4     2     4    1
     5     2    10    1
     6     2    20    1
     7     3     5    1
     8     3    12    1
     9     3    21    1
    10     4     6    1
    11     4    11    1
    12     4    32    1
    13     5     7    1
    14     5    13    1
    15     5    33    1
    16     6     8    1
    17     6    18    1
    18     6    22    1
    19     7     9    1
    20     7    19    1
    21     7    23    1
    22     8    14    1
    23     8    16    1
    24     8    34    1
    25     9    15    1
    26     9    17    1
    27     9    35    1
    28    10    14    1
    29    10    36    1
    30    10    37    1
    31    11    13    1
    32    11    38    1
    33    11    39    1
    34    12    15    1
    35    12    40    1
    36    12    41    1
    37    13    42    1
    38    13    43    1
    39    14    44    1
    40    14    45    1
    41    15    46    1
    42    15    47    1
    43    16    24    1
    44    16    28    1
    45    16    29    1
    46    17    26    1
    47    17    30    1
    48    17    31    1
    49    18    25    1
    50    18    48    1
    51    18    49    1
    52    19    27    1
    53    19    50    1
    54    19    51    1
    55    20    52    1
    56    20    53    1
    57    20    54    1
    58    21    55    1
    59    21    56    1
    60    21    57    1
    61    22    58    1
    62    22    59    1
    63    22    60    1
    64    23    61    1
    65    23    62    1
    66    23    63    1
    67    24    25    1
    68    24    64    1
    69    25    65    1
    70    25    66    1
    71    26    27    1
    72    26    67    1
    73    26    68    1
    74    27    69    1
    75    27    70    1
    76    28    71    1
    77    28    72    1
    78    28    73    1
    79    29    74    1
    80    29    75    1
    81    29    76    1
    82    30    77    1
    83    30    78    1
    84    30    79    1
    85    31    80    1
    86    31    81    1
    87    31    82    1
