@<TRIPOS>MOLECULE
IMPHY013556
 105 104 0 0 0
SMALL
GASTEIGER

@<TRIPOS>ATOM
      1 O          12.0632   -0.5950    0.0000 O.3     1  UNL1       -0.3917
      2 O          10.3312   -0.5950    0.0000 O.3     1  UNL1       -0.3917
      3 O           2.5369    0.9050    0.0000 O.3     1  UNL1       -0.3950
      4 C          12.0632    0.4050    0.0000 C.3     1  UNL1        0.0576
      5 C          11.1972    0.9050    0.0000 C.3     1  UNL1       -0.0007
      6 C          10.3312    0.4050    0.0000 C.3     1  UNL1        0.0576
      7 C          12.9292    0.9050    0.0000 C.3     1  UNL1       -0.0268
      8 C          24.1876    0.4050    0.0000 C.3     1  UNL1       -0.0436
      9 C          13.7953    0.4050    0.0000 C.3     1  UNL1       -0.0507
     10 C           9.4651    0.9050    0.0000 C.3     1  UNL1       -0.0268
     11 C          25.0536    0.9050    0.0000 C.3     1  UNL1       -0.0504
     12 C          14.6613    0.9050    0.0000 C.3     1  UNL1       -0.0530
     13 C           8.5991    0.4050    0.0000 C.3     1  UNL1       -0.0507
     14 C          25.9196    0.4050    0.0000 C.3     1  UNL1       -0.0528
     15 C          15.5273    0.4050    0.0000 C.3     1  UNL1       -0.0531
     16 C          23.3215    0.9050    0.0000 C.3     1  UNL1       -0.0470
     17 C           7.7331    0.9050    0.0000 C.3     1  UNL1       -0.0530
     18 C          16.3933    0.9050    0.0000 C.3     1  UNL1       -0.0531
     19 C          26.7856    0.9050    0.0000 C.3     1  UNL1       -0.0530
     20 C          17.2594    0.4050    0.0000 C.3     1  UNL1       -0.0530
     21 C           6.8671    0.4050    0.0000 C.3     1  UNL1       -0.0531
     22 C          27.6517    0.4050    0.0000 C.3     1  UNL1       -0.0531
     23 C          22.4555    0.4050    0.0000 C.3     1  UNL1       -0.0345
     24 C          18.1254    0.9050    0.0000 C.3     1  UNL1       -0.0528
     25 C          24.1876   -0.5950    0.0000 C.3     1  UNL1       -0.0624
     26 C           6.0010    0.9050    0.0000 C.3     1  UNL1       -0.0530
     27 C          28.5177    0.9050    0.0000 C.3     1  UNL1       -0.0531
     28 C          18.9914    0.4050    0.0000 C.3     1  UNL1       -0.0496
     29 C          19.8574    0.9050    0.0000 C.3     1  UNL1       -0.0348
     30 C           5.1350    0.4050    0.0000 C.3     1  UNL1       -0.0510
     31 C          29.3837    0.4050    0.0000 C.3     1  UNL1       -0.0533
     32 C          21.5895    0.9050    0.0000 C.2     1  UNL1       -0.0879
     33 C          20.7235    0.4050    0.0000 C.2     1  UNL1       -0.0879
     34 C           4.2690    0.9050    0.0000 C.3     1  UNL1       -0.0297
     35 C          30.2497    0.9050    0.0000 C.3     1  UNL1       -0.0559
     36 C           3.4030    0.4050    0.0000 C.3     1  UNL1        0.0442
     37 C          31.1158    0.4050    0.0000 C.3     1  UNL1       -0.0653
     38 H          12.6002    0.0950    0.0000 H       1  UNL1        0.0594
     39 H          11.5957    1.3800    0.0000 H       1  UNL1        0.0315
     40 H          10.7987    1.3800    0.0000 H       1  UNL1        0.0315
     41 H           9.7942    0.0950    0.0000 H       1  UNL1        0.0594
     42 H          13.3278    1.3800    0.0000 H       1  UNL1        0.0290
     43 H          12.5307    1.3800    0.0000 H       1  UNL1        0.0290
     44 H          23.6506    0.0950    0.0000 H       1  UNL1        0.0298
     45 H          13.3967   -0.0699    0.0000 H       1  UNL1        0.0266
     46 H          14.1938   -0.0699    0.0000 H       1  UNL1        0.0266
     47 H           9.8637    1.3800    0.0000 H       1  UNL1        0.0290
     48 H           9.0666    1.3800    0.0000 H       1  UNL1        0.0290
     49 H          25.4521    1.3800    0.0000 H       1  UNL1        0.0268
     50 H          24.6551    1.3800    0.0000 H       1  UNL1        0.0268
     51 H          15.0598    1.3800    0.0000 H       1  UNL1        0.0265
     52 H          14.2628    1.3800    0.0000 H       1  UNL1        0.0265
     53 H           8.2006   -0.0699    0.0000 H       1  UNL1        0.0266
     54 H           8.9976   -0.0699    0.0000 H       1  UNL1        0.0266
     55 H          25.5211   -0.0699    0.0000 H       1  UNL1        0.0265
     56 H          26.3182   -0.0699    0.0000 H       1  UNL1        0.0265
     57 H          15.1288   -0.0699    0.0000 H       1  UNL1        0.0265
     58 H          15.9258   -0.0699    0.0000 H       1  UNL1        0.0265
     59 H          23.7201    1.3800    0.0000 H       1  UNL1        0.0271
     60 H          22.9230    1.3800    0.0000 H       1  UNL1        0.0271
     61 H           8.1316    1.3800    0.0000 H       1  UNL1        0.0265
     62 H           7.3346    1.3800    0.0000 H       1  UNL1        0.0265
     63 H          16.7919    1.3800    0.0000 H       1  UNL1        0.0265
     64 H          15.9948    1.3800    0.0000 H       1  UNL1        0.0265
     65 H          27.1842    1.3800    0.0000 H       1  UNL1        0.0265
     66 H          26.3871    1.3800    0.0000 H       1  UNL1        0.0265
     67 H          16.8608   -0.0699    0.0000 H       1  UNL1        0.0265
     68 H          17.6579   -0.0699    0.0000 H       1  UNL1        0.0265
     69 H           6.4685   -0.0699    0.0000 H       1  UNL1        0.0265
     70 H           7.2656   -0.0699    0.0000 H       1  UNL1        0.0265
     71 H          27.2531   -0.0699    0.0000 H       1  UNL1        0.0265
     72 H          28.0502   -0.0699    0.0000 H       1  UNL1        0.0265
     73 H          22.0570   -0.0699    0.0000 H       1  UNL1        0.0307
     74 H          22.8540   -0.0699    0.0000 H       1  UNL1        0.0307
     75 H          18.5239    1.3800    0.0000 H       1  UNL1        0.0265
     76 H          17.7269    1.3800    0.0000 H       1  UNL1        0.0265
     77 H          23.5676   -0.5950    0.0000 H       1  UNL1        0.0232
     78 H          24.1876   -1.2150    0.0000 H       1  UNL1        0.0232
     79 H          24.8076   -0.5950    0.0000 H       1  UNL1        0.0232
     80 H           6.3996    1.3800    0.0000 H       1  UNL1        0.0265
     81 H           5.6025    1.3800    0.0000 H       1  UNL1        0.0265
     82 H          28.9162    1.3800    0.0000 H       1  UNL1        0.0265
     83 H          28.1192    1.3800    0.0000 H       1  UNL1        0.0265
     84 H          18.5929   -0.0699    0.0000 H       1  UNL1        0.0268
     85 H          19.3899   -0.0699    0.0000 H       1  UNL1        0.0268
     86 H          20.2560    1.3800    0.0000 H       1  UNL1        0.0307
     87 H          19.4589    1.3800    0.0000 H       1  UNL1        0.0307
     88 H           4.7365   -0.0699    0.0000 H       1  UNL1        0.0266
     89 H           5.5335   -0.0699    0.0000 H       1  UNL1        0.0266
     90 H          12.6002   -0.9050    0.0000 H       1  UNL1        0.2098
     91 H          28.9852   -0.0699    0.0000 H       1  UNL1        0.0265
     92 H          29.7823   -0.0699    0.0000 H       1  UNL1        0.0265
     93 H           9.7942   -0.9050    0.0000 H       1  UNL1        0.2098
     94 H          21.5895    1.5250    0.0000 H       1  UNL1        0.0569
     95 H          20.7235   -0.2150    0.0000 H       1  UNL1        0.0569
     96 H           4.6675    1.3800    0.0000 H       1  UNL1        0.0287
     97 H           3.8705    1.3800    0.0000 H       1  UNL1        0.0287
     98 H          30.6483    1.3800    0.0000 H       1  UNL1        0.0263
     99 H          29.8512    1.3800    0.0000 H       1  UNL1        0.0263
    100 H           3.0044   -0.0699    0.0000 H       1  UNL1        0.0557
    101 H           3.8015   -0.0699    0.0000 H       1  UNL1        0.0557
    102 H          30.8058   -0.1319    0.0000 H       1  UNL1        0.0230
    103 H          31.6527    0.0950    0.0000 H       1  UNL1        0.0230
    104 H          31.4258    0.9419    0.0000 H       1  UNL1        0.0230
    105 H           2.0000    0.5950    0.0000 H       1  UNL1        0.2094
@<TRIPOS>BOND
     1     1     4    1
     2     1    90    1
     3     2     6    1
     4     2    93    1
     5     3    36    1
     6     3   105    1
     7     4     5    1
     8     4     7    1
     9     4    38    1
    10     5     6    1
    11     5    39    1
    12     5    40    1
    13     6    10    1
    14     6    41    1
    15     7     9    1
    16     7    42    1
    17     7    43    1
    18     8    11    1
    19     8    16    1
    20     8    25    1
    21     8    44    1
    22     9    12    1
    23     9    45    1
    24     9    46    1
    25    10    13    1
    26    10    47    1
    27    10    48    1
    28    11    14    1
    29    11    49    1
    30    11    50    1
    31    12    15    1
    32    12    51    1
    33    12    52    1
    34    13    17    1
    35    13    53    1
    36    13    54    1
    37    14    19    1
    38    14    55    1
    39    14    56    1
    40    15    18    1
    41    15    57    1
    42    15    58    1
    43    16    23    1
    44    16    59    1
    45    16    60    1
    46    17    21    1
    47    17    61    1
    48    17    62    1
    49    18    20    1
    50    18    63    1
    51    18    64    1
    52    19    22    1
    53    19    65    1
    54    19    66    1
    55    20    24    1
    56    20    67    1
    57    20    68    1
    58    21    26    1
    59    21    69    1
    60    21    70    1
    61    22    27    1
    62    22    71    1
    63    22    72    1
    64    23    32    1
    65    23    73    1
    66    23    74    1
    67    24    28    1
    68    24    75    1
    69    24    76    1
    70    25    77    1
    71    25    78    1
    72    25    79    1
    73    26    30    1
    74    26    80    1
    75    26    81    1
    76    27    31    1
    77    27    82    1
    78    27    83    1
    79    28    29    1
    80    28    84    1
    81    28    85    1
    82    29    33    1
    83    29    86    1
    84    29    87    1
    85    30    34    1
    86    30    88    1
    87    30    89    1
    88    31    35    1
    89    31    91    1
    90    31    92    1
    91    32    33    2
    92    32    94    1
    93    33    95    1
    94    34    36    1
    95    34    96    1
    96    34    97    1
    97    35    37    1
    98    35    98    1
    99    35    99    1
   100    36   100    1
   101    36   101    1
   102    37   102    1
   103    37   103    1
   104    37   104    1
