@<TRIPOS>MOLECULE
IMPHY014378
 32 32 0 0 0
SMALL
GASTEIGER

@<TRIPOS>ATOM
      1 O           2.2690    3.6200    0.0000 O.3     1  UNL1       -0.5068
      2 O           1.8360   10.5500    0.0000 O.3     2  UNL2       -0.5068
      3 C           1.4030    1.1200    0.0000 C.ar    1  UNL1       -0.0470
      4 C           1.8360    7.5500    0.0000 C.ar    2  UNL2       -0.0502
      5 C           1.4030    2.1200    0.0000 C.ar    1  UNL1       -0.0173
      6 C           2.2690    0.6200    0.0000 C.ar    1  UNL1       -0.0586
      7 C           0.9699    8.0500    0.0000 C.ar    2  UNL2       -0.0554
      8 C           2.7020    8.0500    0.0000 C.ar    2  UNL2       -0.0554
      9 C           2.2690    2.6200    0.0000 C.ar    1  UNL1        0.1171
     10 C           0.5369    0.6200    0.0000 C.3     1  UNL1       -0.0396
     11 C           0.9699    9.0500    0.0000 C.ar    2  UNL2       -0.0199
     12 C           2.7020    9.0500    0.0000 C.ar    2  UNL2       -0.0199
     13 C           1.8360    9.5500    0.0000 C.ar    2  UNL2        0.1169
     14 C           1.8360    6.5500    0.0000 C.3     2  UNL2       -0.0397
     15 C           3.1350    1.1200    0.0000 C.ar    1  UNL1       -0.0581
     16 C           3.1350    2.1200    0.0000 C.ar    1  UNL1       -0.0202
     17 H           0.8660    2.4300    0.0000 H       1  UNL1        0.0657
     18 H           2.2690    0.0000    0.0000 H       1  UNL1        0.0620
     19 H           0.4330    7.7400    0.0000 H       2  UNL2        0.0621
     20 H           3.2389    7.7400    0.0000 H       2  UNL2        0.0621
     21 H           0.2269    1.1569    0.0000 H       1  UNL1        0.0278
     22 H           0.0000    0.3100    0.0000 H       1  UNL1        0.0278
     23 H           0.8469    0.0831    0.0000 H       1  UNL1        0.0278
     24 H           0.4330    9.3600    0.0000 H       2  UNL2        0.0654
     25 H           3.2389    9.3600    0.0000 H       2  UNL2        0.0654
     26 H           1.2160    6.5500    0.0000 H       2  UNL2        0.0278
     27 H           1.8360    5.9300    0.0000 H       2  UNL2        0.0278
     28 H           2.4560    6.5500    0.0000 H       2  UNL2        0.0278
     29 H           3.6720    0.8100    0.0000 H       1  UNL1        0.0619
     30 H           3.6720    2.4300    0.0000 H       1  UNL1        0.0654
     31 H           2.8059    3.9300    0.0000 H       1  UNL1        0.2921
     32 H           2.3729   10.8600    0.0000 H       2  UNL2        0.2921
@<TRIPOS>BOND
     1     1     9    1
     2     1    31    1
     3     2    13    1
     4     2    32    1
     5     3     5   ar
     6     3     6   ar
     7     3    10    1
     8     4     7   ar
     9     4     8   ar
    10     4    14    1
    11     5     9   ar
    12     5    17    1
    13     6    15   ar
    14     6    18    1
    15     7    11   ar
    16     7    19    1
    17     8    12   ar
    18     8    20    1
    19     9    16   ar
    20    10    21    1
    21    10    22    1
    22    10    23    1
    23    11    13   ar
    24    11    24    1
    25    12    13   ar
    26    12    25    1
    27    14    26    1
    28    14    27    1
    29    14    28    1
    30    15    16   ar
    31    15    29    1
    32    16    30    1
