@<TRIPOS>MOLECULE
IMPHY009426
 41 43 0 0 0
SMALL
GASTEIGER

@<TRIPOS>ATOM
      1 O           6.3580   -0.2699    0.0000 O.2     1  UNL1       -0.4505
      2 O           4.5981   -1.2352    0.0000 O.3     1  UNL1       -0.4885
      3 O           2.8660   -0.2352    0.0000 O.3     1  UNL1       -0.4912
      4 O           4.5981    2.7648    0.0000 O.3     1  UNL1       -0.5058
      5 O           7.2564   -1.7560    0.0000 O.3     1  UNL1       -0.4907
      6 O           6.3465    2.7994    0.0000 O.2     1  UNL1       -0.2869
      7 O           8.9846   -2.7627    0.0000 O.3     1  UNL1       -0.5033
      8 C           5.4641    1.2648    0.0000 C.ar    1  UNL1        0.1091
      9 C           5.4641    0.2648    0.0000 C.ar    1  UNL1        0.1878
     10 C           7.2641    0.2440    0.0000 C.ar    1  UNL1        0.1430
     11 C           4.5981   -0.2352    0.0000 C.ar    1  UNL1        0.2051
     12 C           8.1282   -0.2594    0.0000 C.ar    1  UNL1        0.0626
     13 C           6.3580    1.7994    0.0000 C.ar    1  UNL1        0.1967
     14 C           4.5981    1.7648    0.0000 C.ar    1  UNL1        0.1349
     15 C           7.2641    1.2856    0.0000 C.ar    1  UNL1        0.0289
     16 C           3.7320    0.2648    0.0000 C.ar    1  UNL1        0.1687
     17 C           3.7320    1.2648    0.0000 C.ar    1  UNL1        0.0261
     18 C           8.1244   -1.2594    0.0000 C.ar    1  UNL1        0.1719
     19 C           8.9962    0.2373    0.0000 C.ar    1  UNL1       -0.0473
     20 C           8.9884   -1.7627    0.0000 C.ar    1  UNL1        0.1592
     21 C           9.8602   -0.2661    0.0000 C.ar    1  UNL1       -0.0574
     22 C           9.8564   -1.2660    0.0000 C.ar    1  UNL1       -0.0165
     23 C           3.7320   -1.7352    0.0000 C.3     1  UNL1        0.0791
     24 C           2.0000    0.2648    0.0000 C.3     1  UNL1        0.0790
     25 C           7.2526   -2.7560    0.0000 C.3     1  UNL1        0.0790
     26 H           7.7998    1.5976    0.0000 H       1  UNL1        0.0693
     27 H           3.1951    1.5748    0.0000 H       1  UNL1        0.0692
     28 H           8.9985    0.8573    0.0000 H       1  UNL1        0.0626
     29 H          10.3984    0.0419    0.0000 H       1  UNL1        0.0619
     30 H          10.3921   -1.5781    0.0000 H       1  UNL1        0.0655
     31 H           4.0611    3.0748    0.0000 H       1  UNL1        0.2922
     32 H           3.4220   -1.1983    0.0000 H       1  UNL1        0.0660
     33 H           3.1951   -2.0452    0.0000 H       1  UNL1        0.0660
     34 H           4.0420   -2.2722    0.0000 H       1  UNL1        0.0660
     35 H           2.3100    0.8017    0.0000 H       1  UNL1        0.0660
     36 H           1.4631    0.5748    0.0000 H       1  UNL1        0.0660
     37 H           1.6900   -0.2722    0.0000 H       1  UNL1        0.0660
     38 H           6.6326   -2.7536    0.0000 H       1  UNL1        0.0660
     39 H           7.2502   -3.3760    0.0000 H       1  UNL1        0.0660
     40 H           7.8725   -2.7584    0.0000 H       1  UNL1        0.0660
     41 H           9.5203   -3.0748    0.0000 H       1  UNL1        0.2923
@<TRIPOS>BOND
     1     1     9   ar
     2     1    10   ar
     3     2    11    1
     4     2    23    1
     5     3    16    1
     6     3    24    1
     7     4    14    1
     8     4    31    1
     9     5    18    1
    10     5    25    1
    11     6    13    2
    12     7    20    1
    13     7    41    1
    14     8     9   ar
    15     8    13   ar
    16     8    14   ar
    17     9    11   ar
    18    10    12    1
    19    10    15   ar
    20    11    16   ar
    21    12    18   ar
    22    12    19   ar
    23    13    15   ar
    24    14    17   ar
    25    15    26    1
    26    16    17   ar
    27    17    27    1
    28    18    20   ar
    29    19    21   ar
    30    19    28    1
    31    20    22   ar
    32    21    22   ar
    33    21    29    1
    34    22    30    1
    35    23    32    1
    36    23    33    1
    37    23    34    1
    38    24    35    1
    39    24    36    1
    40    24    37    1
    41    25    38    1
    42    25    39    1
    43    25    40    1
