@<TRIPOS>MOLECULE
IMPHY015396
 43 45 0 0 0
SMALL
GASTEIGER

@<TRIPOS>ATOM
      1 O           4.7953   -0.9220    0.0000 O.3     1  UNL1       -0.3638
      2 O           2.6200   -1.6778    0.0000 O.3     1  UNL1       -0.3860
      3 C           4.0213   -0.2888    0.0000 C.3     1  UNL1        0.1041
      4 C           4.0338    0.7112    0.0000 C.3     1  UNL1       -0.0003
      5 C           6.2180    0.1839    0.0000 C.3     1  UNL1       -0.0096
      6 C           5.0427    0.3054    0.0000 C.3     1  UNL1       -0.0151
      7 C           3.1208   -0.8122    0.0000 C.3     1  UNL1        0.0926
      8 C           5.7729   -0.7116    0.0000 C.3     1  UNL1        0.0677
      9 C           4.8233    1.3248    0.0000 C.3     1  UNL1       -0.0446
     10 C           5.7954    1.0902    0.0000 C.3     1  UNL1       -0.0469
     11 C           3.1466    1.2569    0.0000 C.3     1  UNL1       -0.0448
     12 C           2.2212   -0.2871    0.0000 C.3     1  UNL1       -0.0215
     13 C           2.2342    0.7544    0.0000 C.3     1  UNL1       -0.0498
     14 C           4.0462    1.7111    0.0000 C.3     1  UNL1       -0.0568
     15 C           3.6200   -1.6787    0.0000 C.3     1  UNL1       -0.0333
     16 C           5.8054   -1.7111    0.0000 C.3     1  UNL1       -0.0358
     17 C           6.7335   -0.9896    0.0000 C.3     1  UNL1       -0.0358
     18 H           7.0490    0.3627    0.0000 H       1  UNL1        0.0329
     19 H           5.2936    0.8724    0.0000 H       1  UNL1        0.0298
     20 H           4.5808    0.7190    0.0000 H       1  UNL1        0.0298
     21 H           5.0993    1.8800    0.0000 H       1  UNL1        0.0272
     22 H           4.3434    1.7174    0.0000 H       1  UNL1        0.0272
     23 H           6.4015    1.2206    0.0000 H       1  UNL1        0.0269
     24 H           5.8031    1.7102    0.0000 H       1  UNL1        0.0269
     25 H           3.5570    1.7216    0.0000 H       1  UNL1        0.0271
     26 H           2.7590    1.7408    0.0000 H       1  UNL1        0.0271
     27 H           1.6117   -0.1734    0.0000 H       1  UNL1        0.0294
     28 H           2.0049   -0.8682    0.0000 H       1  UNL1        0.0294
     29 H           2.0324    1.3407    0.0000 H       1  UNL1        0.0266
     30 H           1.6220    0.6559    0.0000 H       1  UNL1        0.0266
     31 H           4.6662    1.7034    0.0000 H       1  UNL1        0.0236
     32 H           4.0540    2.3310    0.0000 H       1  UNL1        0.0236
     33 H           3.4263    1.7188    0.0000 H       1  UNL1        0.0236
     34 H           3.0828   -1.9882    0.0000 H       1  UNL1        0.0258
     35 H           3.9295   -2.2159    0.0000 H       1  UNL1        0.0258
     36 H           4.1572   -1.3692    0.0000 H       1  UNL1        0.0258
     37 H           5.1857   -1.7312    0.0000 H       1  UNL1        0.0257
     38 H           5.8254   -2.3308    0.0000 H       1  UNL1        0.0257
     39 H           6.4250   -1.6910    0.0000 H       1  UNL1        0.0257
     40 H           6.5611   -1.5852    0.0000 H       1  UNL1        0.0257
     41 H           7.3291   -1.1620    0.0000 H       1  UNL1        0.0257
     42 H           6.9059   -0.3941    0.0000 H       1  UNL1        0.0257
     43 H           2.0000   -1.6773    0.0000 H       1  UNL1        0.2103
@<TRIPOS>BOND
     1     3     1    1
     2     1     8    1
     3     7     2    1
     4     2    43    1
     5     3     4    1
     6     3     6    1
     7     3     7    1
     8     4     9    1
     9     4    11    1
    10     4    14    1
    11     5     6    1
    12     5     8    1
    13     5    10    1
    14     5    18    1
    15     6    19    1
    16     6    20    1
    17     7    12    1
    18     7    15    1
    19     8    16    1
    20     8    17    1
    21     9    10    1
    22     9    21    1
    23     9    22    1
    24    10    23    1
    25    10    24    1
    26    11    13    1
    27    11    25    1
    28    11    26    1
    29    12    13    1
    30    12    27    1
    31    12    28    1
    32    13    29    1
    33    13    30    1
    34    14    31    1
    35    14    32    1
    36    14    33    1
    37    15    34    1
    38    15    35    1
    39    15    36    1
    40    16    37    1
    41    16    38    1
    42    16    39    1
    43    17    40    1
    44    17    41    1
    45    17    42    1
