@<TRIPOS>MOLECULE
IMPHY001613
 30 33 0 0 0
SMALL
GASTEIGER

@<TRIPOS>ATOM
      1 O           5.5321   -0.5208    0.0000 O.3     1  UNL1       -0.4866
      2 O           3.6971    3.4990    0.0000 O.3     1  UNL1       -0.5067
      3 O           3.6971   -3.4990    0.0000 O.3     1  UNL1       -0.5066
      4 C           3.7320    0.5000    0.0000 C.ar    1  UNL1       -0.0043
      5 C           3.7320   -0.5000    0.0000 C.ar    1  UNL1        0.0278
      6 C           2.8660    1.0000    0.0000 C.ar    1  UNL1       -0.0354
      7 C           2.0000    0.5000    0.0000 C.3     1  UNL1       -0.0230
      8 C           2.0000   -0.5000    0.0000 C.3     1  UNL1       -0.0229
      9 C           2.8660   -1.0000    0.0000 C.ar    1  UNL1       -0.0324
     10 C           4.6260    1.0347    0.0000 C.ar    1  UNL1        0.0011
     11 C           4.6260   -1.0347    0.0000 C.ar    1  UNL1        0.1324
     12 C           5.5321    0.5208    0.0000 C.3     1  UNL1        0.1153
     13 C           2.8648    1.9917    0.0000 C.ar    1  UNL1       -0.0164
     14 C           2.8648   -1.9917    0.0000 C.ar    1  UNL1       -0.0162
     15 C           4.5882    2.0256    0.0000 C.ar    1  UNL1       -0.0132
     16 C           4.5882   -2.0256    0.0000 C.ar    1  UNL1        0.0222
     17 C           3.7168    2.4991    0.0000 C.ar    1  UNL1        0.1175
     18 C           3.7168   -2.4991    0.0000 C.ar    1  UNL1        0.1206
     19 H           1.7880    1.0826    0.0000 H       1  UNL1        0.0317
     20 H           1.3894    0.3923    0.0000 H       1  UNL1        0.0317
     21 H           1.3894   -0.3923    0.0000 H       1  UNL1        0.0317
     22 H           1.7880   -1.0826    0.0000 H       1  UNL1        0.0317
     23 H           6.1429    0.4147    0.0000 H       1  UNL1        0.0748
     24 H           5.7411    1.1045    0.0000 H       1  UNL1        0.0748
     25 H           2.3256    2.2977    0.0000 H       1  UNL1        0.0657
     26 H           2.3256   -2.2977    0.0000 H       1  UNL1        0.0657
     27 H           5.1149    2.3527    0.0000 H       1  UNL1        0.0658
     28 H           5.1149   -2.3527    0.0000 H       1  UNL1        0.0691
     29 H           4.2279    3.8195    0.0000 H       1  UNL1        0.2921
     30 H           4.2279   -3.8195    0.0000 H       1  UNL1        0.2921
@<TRIPOS>BOND
     1     1    11    1
     2     1    12    1
     3     2    17    1
     4     2    29    1
     5     3    18    1
     6     3    30    1
     7     4     5    1
     8     4     6   ar
     9     4    10   ar
    10     5     9   ar
    11     5    11   ar
    12     6     7    1
    13     6    13   ar
    14     7     8    1
    15     7    19    1
    16     7    20    1
    17     8     9    1
    18     8    21    1
    19     8    22    1
    20     9    14   ar
    21    10    12    1
    22    10    15   ar
    23    11    16   ar
    24    12    23    1
    25    12    24    1
    26    13    17   ar
    27    13    25    1
    28    14    18   ar
    29    14    26    1
    30    15    17   ar
    31    15    27    1
    32    16    18   ar
    33    16    28    1
