@<TRIPOS>MOLECULE
IMPHY003407
 73 78 0 0 0
SMALL
GASTEIGER

@<TRIPOS>ATOM
      1 O           6.3462   -2.2076    0.0000 O.3     1  UNL1       -0.3448
      2 O           5.2833   -2.6918    0.0000 O.3     1  UNL1       -0.3399
      3 O          12.7535    3.1716    0.0000 O.3     1  UNL1       -0.3915
      4 O           2.5662   -2.6176    0.0000 O.3     1  UNL1       -0.3922
      5 C           7.4136    0.0273    0.0000 C.3     1  UNL1       -0.0233
      6 C           8.2796   -0.4727    0.0000 C.3     1  UNL1       -0.0295
      7 C           6.6766   -0.6398    0.0000 C.3     1  UNL1       -0.0015
      8 C           9.1457    0.0273    0.0000 C.3     1  UNL1       -0.0306
      9 C           7.0817   -1.5476    0.0000 C.3     1  UNL1        0.0660
     10 C           8.0704   -1.4446    0.0000 C.3     1  UNL1       -0.0226
     11 C           9.1457    1.0272    0.0000 C.3     1  UNL1       -0.0285
     12 C           5.6942   -0.7465    0.0000 C.3     1  UNL1        0.0160
     13 C           7.4136    1.0272    0.0000 C.3     1  UNL1       -0.0467
     14 C           5.4904   -1.7135    0.0000 C.3     1  UNL1        0.1741
     15 C           8.2796    1.5272    0.0000 C.3     1  UNL1       -0.0486
     16 C          10.0396    1.5619    0.0000 C.3     1  UNL1       -0.0078
     17 C           6.5476    0.5273    0.0000 C.3     1  UNL1       -0.0590
     18 C          10.0396   -0.5074    0.0000 C.3     1  UNL1       -0.0311
     19 C          10.9457    1.0481    0.0000 C.2     1  UNL1       -0.0648
     20 C           4.6239   -1.2142    0.0000 C.3     1  UNL1        0.0044
     21 C           5.0231   -0.0051    0.0000 C.3     1  UNL1       -0.0572
     22 C          10.0145    2.6466    0.0000 C.3     1  UNL1       -0.0413
     23 C          10.9457    0.0064    0.0000 C.2     1  UNL1       -0.0839
     24 C           4.2889   -2.7972    0.0000 C.3     1  UNL1        0.0931
     25 C           9.1698    2.0552    0.0000 C.3     1  UNL1       -0.0556
     26 C           3.8814   -1.8840    0.0000 C.3     1  UNL1       -0.0169
     27 C          11.8895    1.5833    0.0000 C.3     1  UNL1       -0.0051
     28 C          10.9457    3.2035    0.0000 C.3     1  UNL1       -0.0258
     29 C          11.8895    2.6683    0.0000 C.3     1  UNL1        0.0590
     30 C           3.3757   -3.2047    0.0000 C.3     1  UNL1        0.0731
     31 C           4.3943   -3.7916    0.0000 C.3     1  UNL1       -0.0335
     32 H           8.9666   -0.9733    0.0000 H       1  UNL1        0.0310
     33 H           6.3285    0.1356    0.0000 H       1  UNL1        0.0335
     34 H           9.1391   -0.8227    0.0000 H       1  UNL1        0.0310
     35 H           7.4264   -2.3246    0.0000 H       1  UNL1        0.0600
     36 H           8.0695   -2.0646    0.0000 H       1  UNL1        0.0293
     37 H           8.6869   -1.5106    0.0000 H       1  UNL1        0.0293
     38 H           9.8850    0.6079    0.0000 H       1  UNL1        0.0312
     39 H           5.0956   -0.9083    0.0000 H       1  UNL1        0.0354
     40 H           7.2016    1.6099    0.0000 H       1  UNL1        0.0271
     41 H           6.8030    0.9196    0.0000 H       1  UNL1        0.0271
     42 H           8.6782    2.0022    0.0000 H       1  UNL1        0.0268
     43 H           7.8811    2.0022    0.0000 H       1  UNL1        0.0268
     44 H           6.8576    1.0642    0.0000 H       1  UNL1        0.0235
     45 H           6.0106    0.8373    0.0000 H       1  UNL1        0.0235
     46 H           6.2376   -0.0097    0.0000 H       1  UNL1        0.0235
     47 H           9.6350   -0.9772    0.0000 H       1  UNL1        0.0310
     48 H          10.4332   -0.9864    0.0000 H       1  UNL1        0.0310
     49 H           4.9879   -0.7123    0.0000 H       1  UNL1        0.0318
     50 H           4.1628   -0.7998    0.0000 H       1  UNL1        0.0318
     51 H           5.4828    0.4109    0.0000 H       1  UNL1        0.0234
     52 H           4.6071    0.4545    0.0000 H       1  UNL1        0.0234
     53 H           4.5634   -0.4212    0.0000 H       1  UNL1        0.0234
     54 H           9.7920    3.2253    0.0000 H       1  UNL1        0.0274
     55 H           9.4063    2.5264    0.0000 H       1  UNL1        0.0274
     56 H          11.4814   -0.3056    0.0000 H       1  UNL1        0.0572
     57 H           9.4756    2.5945    0.0000 H       1  UNL1        0.0238
     58 H           8.6304    2.3611    0.0000 H       1  UNL1        0.0238
     59 H           8.8639    1.5159    0.0000 H       1  UNL1        0.0238
     60 H           3.5165   -1.3827    0.0000 H       1  UNL1        0.0295
     61 H           3.3447   -2.1945    0.0000 H       1  UNL1        0.0295
     62 H          12.0985    0.9996    0.0000 H       1  UNL1        0.0335
     63 H          12.5003    1.6894    0.0000 H       1  UNL1        0.0335
     64 H          11.3393    3.6826    0.0000 H       1  UNL1        0.0290
     65 H          10.5411    3.6733    0.0000 H       1  UNL1        0.0290
     66 H          12.4270    2.3593    0.0000 H       1  UNL1        0.0596
     67 H           2.9301   -3.6358    0.0000 H       1  UNL1        0.0586
     68 H           3.7228   -3.7184    0.0000 H       1  UNL1        0.0586
     69 H           3.7777   -3.8570    0.0000 H       1  UNL1        0.0258
     70 H           4.4596   -4.4082    0.0000 H       1  UNL1        0.0258
     71 H           5.0108   -3.7263    0.0000 H       1  UNL1        0.0258
     72 H          12.7512    3.7916    0.0000 H       1  UNL1        0.2098
     73 H           2.0000   -2.8703    0.0000 H       1  UNL1        0.2095
@<TRIPOS>BOND
     1     1     9    1
     2    14     1    1
     3     2    14    1
     4     2    24    1
     5    29     3    1
     6     3    72    1
     7     4    30    1
     8     4    73    1
     9     5     6    1
    10     5     7    1
    11     5    13    1
    12     5    17    1
    13     6     8    1
    14     6    10    1
    15     6    32    1
    16     7     9    1
    17     7    12    1
    18     7    33    1
    19     8    11    1
    20     8    18    1
    21     8    34    1
    22     9    10    1
    23     9    35    1
    24    10    36    1
    25    10    37    1
    26    11    15    1
    27    11    16    1
    28    11    38    1
    29    12    14    1
    30    12    21    1
    31    12    39    1
    32    13    15    1
    33    13    40    1
    34    13    41    1
    35    14    20    1
    36    15    42    1
    37    15    43    1
    38    16    19    1
    39    16    22    1
    40    16    25    1
    41    17    44    1
    42    17    45    1
    43    17    46    1
    44    18    23    1
    45    18    47    1
    46    18    48    1
    47    19    23    2
    48    19    27    1
    49    20    26    1
    50    20    49    1
    51    20    50    1
    52    21    51    1
    53    21    52    1
    54    21    53    1
    55    22    28    1
    56    22    54    1
    57    22    55    1
    58    23    56    1
    59    24    26    1
    60    24    30    1
    61    24    31    1
    62    25    57    1
    63    25    58    1
    64    25    59    1
    65    26    60    1
    66    26    61    1
    67    27    29    1
    68    27    62    1
    69    27    63    1
    70    28    29    1
    71    28    64    1
    72    28    65    1
    73    29    66    1
    74    30    67    1
    75    30    68    1
    76    31    69    1
    77    31    70    1
    78    31    71    1
