@<TRIPOS>MOLECULE
IMPHY011651
 100 101 0 0 0
SMALL
GASTEIGER

@<TRIPOS>ATOM
      1 O           6.6666   -2.3617    0.0000 O.3     1  UNL1       -0.3682
      2 O           3.7601  -13.7291    0.0000 O.3     1  UNL1       -0.4542
      3 O           5.5202  -13.4504    0.0000 O.2     1  UNL1       -0.2453
      4 C           5.7531   -2.7685    0.0000 C.3     1  UNL1        0.0852
      5 C           5.8576   -1.7739    0.0000 C.3     1  UNL1        0.0855
      6 C           5.1653   -3.5775    0.0000 C.3     1  UNL1       -0.0241
      7 C           5.4509   -0.8604    0.0000 C.3     1  UNL1       -0.0207
      8 C           5.5720   -4.4910    0.0000 C.3     1  UNL1       -0.0506
      9 C           6.0387   -0.0514    0.0000 C.3     1  UNL1       -0.0323
     10 C           4.9843   -5.3000    0.0000 C.3     1  UNL1       -0.0530
     11 C           5.3910   -6.2136    0.0000 C.3     1  UNL1       -0.0531
     12 C           4.8032   -7.0226    0.0000 C.3     1  UNL1       -0.0531
     13 C           5.6319    0.8622    0.0000 C.2     1  UNL1       -0.0878
     14 C           5.2100   -7.9361    0.0000 C.3     1  UNL1       -0.0531
     15 C           4.6222   -8.7452    0.0000 C.3     1  UNL1       -0.0530
     16 C           6.2197    1.6712    0.0000 C.2     1  UNL1       -0.0879
     17 C           5.8130    2.5847    0.0000 C.3     1  UNL1       -0.0348
     18 C           5.0289   -9.6587    0.0000 C.3     1  UNL1       -0.0528
     19 C           6.4008    3.3938    0.0000 C.3     1  UNL1       -0.0496
     20 C           5.9940    4.3073    0.0000 C.3     1  UNL1       -0.0528
     21 C           4.4411  -10.4677    0.0000 C.3     1  UNL1       -0.0488
     22 C           6.5818    5.1163    0.0000 C.3     1  UNL1       -0.0530
     23 C           6.1751    6.0299    0.0000 C.3     1  UNL1       -0.0531
     24 C           6.7629    6.8389    0.0000 C.3     1  UNL1       -0.0531
     25 C           6.3561    7.7524    0.0000 C.3     1  UNL1       -0.0531
     26 C           6.9439    8.5614    0.0000 C.3     1  UNL1       -0.0531
     27 C           4.8479  -11.3813    0.0000 C.3     1  UNL1       -0.0211
     28 C           6.5372    9.4750    0.0000 C.3     1  UNL1       -0.0531
     29 C           7.1250   10.2840    0.0000 C.3     1  UNL1       -0.0531
     30 C           6.7182   11.1975    0.0000 C.3     1  UNL1       -0.0531
     31 C           4.2601  -12.1903    0.0000 C.2     1  UNL1        0.0361
     32 C           7.3060   12.0066    0.0000 C.3     1  UNL1       -0.0533
     33 C           3.2601  -12.1903    0.0000 C.2     1  UNL1       -0.0343
     34 C           2.9511  -13.1413    0.0000 C.3     1  UNL1        0.1195
     35 C           6.8993   12.9201    0.0000 C.3     1  UNL1       -0.0559
     36 C           4.5691  -13.1413    0.0000 C.2     1  UNL1        0.3355
     37 C           7.4871   13.7291    0.0000 C.3     1  UNL1       -0.0653
     38 C           2.0000  -13.4504    0.0000 C.3     1  UNL1       -0.0240
     39 H           6.1433   -3.2503    0.0000 H       1  UNL1        0.0622
     40 H           6.3395   -1.3838    0.0000 H       1  UNL1        0.0622
     41 H           4.7346   -3.1315    0.0000 H       1  UNL1        0.0291
     42 H           4.6513   -3.9242    0.0000 H       1  UNL1        0.0291
     43 H           5.0202   -0.4144    0.0000 H       1  UNL1        0.0294
     44 H           4.9369   -1.2071    0.0000 H       1  UNL1        0.0294
     45 H           6.0027   -4.9370    0.0000 H       1  UNL1        0.0266
     46 H           6.0861   -4.1443    0.0000 H       1  UNL1        0.0266
     47 H           6.4694   -0.4974    0.0000 H       1  UNL1        0.0308
     48 H           6.5527    0.2953    0.0000 H       1  UNL1        0.0308
     49 H           4.5536   -4.8540    0.0000 H       1  UNL1        0.0265
     50 H           4.4703   -5.6467    0.0000 H       1  UNL1        0.0265
     51 H           5.8217   -6.6596    0.0000 H       1  UNL1        0.0265
     52 H           5.9050   -5.8669    0.0000 H       1  UNL1        0.0265
     53 H           4.3725   -6.5766    0.0000 H       1  UNL1        0.0265
     54 H           4.2892   -7.3693    0.0000 H       1  UNL1        0.0265
     55 H           5.0153    0.9270    0.0000 H       1  UNL1        0.0569
     56 H           5.6406   -8.3821    0.0000 H       1  UNL1        0.0265
     57 H           5.7240   -7.5894    0.0000 H       1  UNL1        0.0265
     58 H           4.1915   -8.2992    0.0000 H       1  UNL1        0.0265
     59 H           4.1082   -9.0919    0.0000 H       1  UNL1        0.0265
     60 H           6.8363    1.6064    0.0000 H       1  UNL1        0.0569
     61 H           5.3823    3.0307    0.0000 H       1  UNL1        0.0307
     62 H           5.2990    2.2380    0.0000 H       1  UNL1        0.0307
     63 H           5.4596  -10.1047    0.0000 H       1  UNL1        0.0265
     64 H           5.5429   -9.3120    0.0000 H       1  UNL1        0.0265
     65 H           6.8315    2.9478    0.0000 H       1  UNL1        0.0268
     66 H           6.9148    3.7404    0.0000 H       1  UNL1        0.0268
     67 H           5.5634    4.7533    0.0000 H       1  UNL1        0.0265
     68 H           5.4800    3.9606    0.0000 H       1  UNL1        0.0265
     69 H           7.0125    4.6703    0.0000 H       1  UNL1        0.0265
     70 H           7.0958    5.4630    0.0000 H       1  UNL1        0.0265
     71 H           4.0104  -10.0217    0.0000 H       1  UNL1        0.0268
     72 H           3.9271  -10.8144    0.0000 H       1  UNL1        0.0268
     73 H           5.7444    6.4758    0.0000 H       1  UNL1        0.0265
     74 H           5.6611    5.6832    0.0000 H       1  UNL1        0.0265
     75 H           7.1936    6.3929    0.0000 H       1  UNL1        0.0265
     76 H           7.2769    7.1856    0.0000 H       1  UNL1        0.0265
     77 H           5.9254    8.1984    0.0000 H       1  UNL1        0.0265
     78 H           5.8421    7.4057    0.0000 H       1  UNL1        0.0265
     79 H           7.3746    8.1154    0.0000 H       1  UNL1        0.0265
     80 H           7.4579    8.9081    0.0000 H       1  UNL1        0.0265
     81 H           5.2786  -11.8273    0.0000 H       1  UNL1        0.0315
     82 H           5.3619  -11.0346    0.0000 H       1  UNL1        0.0315
     83 H           6.1065    9.9210    0.0000 H       1  UNL1        0.0265
     84 H           6.0232    9.1283    0.0000 H       1  UNL1        0.0265
     85 H           7.5557    9.8380    0.0000 H       1  UNL1        0.0265
     86 H           7.6390   10.6307    0.0000 H       1  UNL1        0.0265
     87 H           6.2876   11.6435    0.0000 H       1  UNL1        0.0265
     88 H           6.2042   10.8508    0.0000 H       1  UNL1        0.0265
     89 H           7.7367   11.5606    0.0000 H       1  UNL1        0.0265
     90 H           7.8200   12.3533    0.0000 H       1  UNL1        0.0265
     91 H           2.8956  -11.6887    0.0000 H       1  UNL1        0.0613
     92 H           2.8541  -13.7537    0.0000 H       1  UNL1        0.0777
     93 H           6.4686   13.3661    0.0000 H       1  UNL1        0.0263
     94 H           6.3853   12.5734    0.0000 H       1  UNL1        0.0263
     95 H           7.9887   13.3647    0.0000 H       1  UNL1        0.0230
     96 H           7.8515   14.2307    0.0000 H       1  UNL1        0.0230
     97 H           6.9855   14.0936    0.0000 H       1  UNL1        0.0230
     98 H           1.8084  -12.8607    0.0000 H       1  UNL1        0.0268
     99 H           1.4103  -13.6419    0.0000 H       1  UNL1        0.0268
    100 H           2.1916  -14.0400    0.0000 H       1  UNL1        0.0268
@<TRIPOS>BOND
     1     1     4    1
     2     1     5    1
     3     2    34    1
     4     2    36    1
     5     3    36    2
     6     4     5    1
     7     4     6    1
     8     4    39    1
     9     5     7    1
    10     5    40    1
    11     6     8    1
    12     6    41    1
    13     6    42    1
    14     7     9    1
    15     7    43    1
    16     7    44    1
    17     8    10    1
    18     8    45    1
    19     8    46    1
    20     9    13    1
    21     9    47    1
    22     9    48    1
    23    10    11    1
    24    10    49    1
    25    10    50    1
    26    11    12    1
    27    11    51    1
    28    11    52    1
    29    12    14    1
    30    12    53    1
    31    12    54    1
    32    13    16    2
    33    13    55    1
    34    14    15    1
    35    14    56    1
    36    14    57    1
    37    15    18    1
    38    15    58    1
    39    15    59    1
    40    16    17    1
    41    16    60    1
    42    17    19    1
    43    17    61    1
    44    17    62    1
    45    18    21    1
    46    18    63    1
    47    18    64    1
    48    19    20    1
    49    19    65    1
    50    19    66    1
    51    20    22    1
    52    20    67    1
    53    20    68    1
    54    21    27    1
    55    21    71    1
    56    21    72    1
    57    22    23    1
    58    22    69    1
    59    22    70    1
    60    23    24    1
    61    23    73    1
    62    23    74    1
    63    24    25    1
    64    24    75    1
    65    24    76    1
    66    25    26    1
    67    25    77    1
    68    25    78    1
    69    26    28    1
    70    26    79    1
    71    26    80    1
    72    27    31    1
    73    27    81    1
    74    27    82    1
    75    28    29    1
    76    28    83    1
    77    28    84    1
    78    29    30    1
    79    29    85    1
    80    29    86    1
    81    30    32    1
    82    30    87    1
    83    30    88    1
    84    31    33    2
    85    31    36    1
    86    32    35    1
    87    32    89    1
    88    32    90    1
    89    33    34    1
    90    33    91    1
    91    34    38    1
    92    34    92    1
    93    35    37    1
    94    35    93    1
    95    35    94    1
    96    37    95    1
    97    37    96    1
    98    37    97    1
    99    38    98    1
   100    38    99    1
   101    38   100    1
