@<TRIPOS>MOLECULE
IMPHY008282
 106 111 0 0 0
SMALL
GASTEIGER

@<TRIPOS>ATOM
      1 O          11.6212    3.2475    0.0000 O.3     1  UNL1       -0.4880
      2 O          12.4873    5.7475    0.0000 O.3     1  UNL1       -0.3947
      3 O          15.9677    1.7129    0.0000 O.3     1  UNL1       -0.4910
      4 O          17.7494    4.7717    0.0000 O.3     1  UNL1       -0.4913
      5 O          17.7494    2.7234    0.0000 O.3     1  UNL1       -0.5009
      6 O          15.9514   -0.2525    0.0000 O.3     1  UNL1       -0.4913
      7 O          12.4873   -0.2525    0.0000 O.3     1  UNL1       -0.4913
      8 O          14.2193   -1.2525    0.0000 O.3     1  UNL1       -0.5009
      9 O           9.8434    4.2648    0.0000 O.3     1  UNL1       -0.5027
     10 O           8.0833    1.2370    0.0000 O.3     1  UNL1       -0.4768
     11 O           8.0949    4.2370    0.0000 O.2     1  UNL1       -0.5029
     12 O           6.3590    3.2437    0.0000 O.2     1  UNL1       -0.5044
     13 O           6.3474    0.2437    0.0000 O.3     1  UNL1       -0.4574
     14 O           4.6154    0.2504    0.0000 O.2     1  UNL1       -0.2456
     15 O           6.3282   -4.7563    0.0000 O.3     1  UNL1       -0.4913
     16 O           2.8641   -4.7429    0.0000 O.3     1  UNL1       -0.4913
     17 O           4.5923   -5.7496    0.0000 O.3     1  UNL1       -0.5009
     18 C          13.3533    3.2475    0.0000 C.3     1  UNL1        0.0093
     19 C          13.3533    4.2475    0.0000 C.3     1  UNL1       -0.0071
     20 C          14.2193    2.7475    0.0000 C.3     1  UNL1        0.0195
     21 C          14.2193    4.7475    0.0000 C.3     1  UNL1       -0.0219
     22 C          15.0853    3.2475    0.0000 C.ar    1  UNL1        0.0091
     23 C          15.0853    4.2475    0.0000 C.ar    1  UNL1       -0.0361
     24 C          12.4873    2.7475    0.0000 C.3     1  UNL1        0.0938
     25 C          12.4873    4.7475    0.0000 C.3     1  UNL1        0.0477
     26 C          14.2193    1.7475    0.0000 C.ar    1  UNL1       -0.0323
     27 C          15.9793    2.7129    0.0000 C.ar    1  UNL1        0.1690
     28 C          15.9793    4.7822    0.0000 C.ar    1  UNL1       -0.0126
     29 C          16.8853    3.2267    0.0000 C.ar    1  UNL1        0.2013
     30 C          13.3533    1.2475    0.0000 C.ar    1  UNL1       -0.0123
     31 C          15.0853    1.2475    0.0000 C.ar    1  UNL1       -0.0123
     32 C          16.8853    4.2683    0.0000 C.ar    1  UNL1        0.1653
     33 C          15.0853    0.2475    0.0000 C.ar    1  UNL1        0.1653
     34 C          13.3533    0.2475    0.0000 C.ar    1  UNL1        0.1653
     35 C          10.7552    2.7475    0.0000 C.ar    1  UNL1        0.1626
     36 C          14.2193   -0.2525    0.0000 C.ar    1  UNL1        0.2010
     37 C          16.8279    1.2030    0.0000 C.3     1  UNL1        0.0790
     38 C           9.8511    3.2649    0.0000 C.ar    1  UNL1        0.1730
     39 C          10.7512    1.7059    0.0000 C.ar    1  UNL1       -0.0128
     40 C           8.9551    2.7336    0.0000 C.ar    1  UNL1        0.1064
     41 C          17.7456    5.7717    0.0000 C.3     1  UNL1        0.0790
     42 C           9.8432    1.1955    0.0000 C.ar    1  UNL1       -0.0155
     43 C           8.9513    1.7337    0.0000 C.ar    1  UNL1        0.1362
     44 C          15.9514   -1.2525    0.0000 C.3     1  UNL1        0.0790
     45 C          12.4873   -1.2525    0.0000 C.3     1  UNL1        0.0790
     46 C           8.0910    3.2370    0.0000 C.2     1  UNL1        0.1724
     47 C           7.2192    1.7403    0.0000 C.3     1  UNL1        0.1937
     48 C           7.2231    2.7403    0.0000 C.2     1  UNL1        0.1804
     49 C           6.3513    1.2437    0.0000 C.3     1  UNL1        0.1368
     50 C           5.4795   -0.2530    0.0000 C.2     1  UNL1        0.3321
     51 C           5.4756   -1.2530    0.0000 C.2     1  UNL1        0.0231
     52 C           4.6077   -1.7496    0.0000 C.2     1  UNL1       -0.0476
     53 C           4.6038   -2.7496    0.0000 C.ar    1  UNL1       -0.0177
     54 C           3.7359   -3.2463    0.0000 C.ar    1  UNL1       -0.0089
     55 C           5.4679   -3.2529    0.0000 C.ar    1  UNL1       -0.0089
     56 C           5.4641   -4.2530    0.0000 C.ar    1  UNL1        0.1655
     57 C           3.7320   -4.2463    0.0000 C.ar    1  UNL1        0.1655
     58 C           4.5961   -4.7496    0.0000 C.ar    1  UNL1        0.2010
     59 C           6.3243   -5.7563    0.0000 C.3     1  UNL1        0.0790
     60 C           2.0000   -4.2396    0.0000 C.3     1  UNL1        0.0790
     61 H          12.8163    3.5575    0.0000 H       1  UNL1        0.0346
     62 H          13.3533    4.8675    0.0000 H       1  UNL1        0.0330
     63 H          13.6824    2.4375    0.0000 H       1  UNL1        0.0402
     64 H          14.6178    5.2225    0.0000 H       1  UNL1        0.0317
     65 H          13.8208    5.2225    0.0000 H       1  UNL1        0.0317
     66 H          12.0887    2.2726    0.0000 H       1  UNL1        0.0700
     67 H          12.8858    2.2726    0.0000 H       1  UNL1        0.0700
     68 H          11.8767    4.8552    0.0000 H       1  UNL1        0.0560
     69 H          12.2752    4.1649    0.0000 H       1  UNL1        0.0560
     70 H          15.9721    5.4022    0.0000 H       1  UNL1        0.0658
     71 H          12.8163    1.5575    0.0000 H       1  UNL1        0.0658
     72 H          15.6223    1.5575    0.0000 H       1  UNL1        0.0658
     73 H          11.9503    6.0575    0.0000 H       1  UNL1        0.2094
     74 H          18.2876    3.0313    0.0000 H       1  UNL1        0.2924
     75 H          16.5117    0.6696    0.0000 H       1  UNL1        0.0660
     76 H          17.3612    0.8868    0.0000 H       1  UNL1        0.0660
     77 H          17.1441    1.7363    0.0000 H       1  UNL1        0.0660
     78 H          11.2857    1.3918    0.0000 H       1  UNL1        0.0656
     79 H          18.3656    5.7741    0.0000 H       1  UNL1        0.0660
     80 H          17.7432    6.3917    0.0000 H       1  UNL1        0.0660
     81 H          17.1256    5.7693    0.0000 H       1  UNL1        0.0660
     82 H          14.7562   -1.5625    0.0000 H       1  UNL1        0.2924
     83 H           9.8336    0.5756    0.0000 H       1  UNL1        0.0655
     84 H          15.3314   -1.2525    0.0000 H       1  UNL1        0.0660
     85 H          15.9514   -1.8725    0.0000 H       1  UNL1        0.0660
     86 H          16.5714   -1.2525    0.0000 H       1  UNL1        0.0660
     87 H          11.8673   -1.2525    0.0000 H       1  UNL1        0.0660
     88 H          12.4873   -1.8725    0.0000 H       1  UNL1        0.0660
     89 H          13.1073   -1.2525    0.0000 H       1  UNL1        0.0660
     90 H          10.3780    4.5790    0.0000 H       1  UNL1        0.2923
     91 H           7.2168    1.1203    0.0000 H       1  UNL1        0.0852
     92 H           6.1415    1.8271    0.0000 H       1  UNL1        0.0740
     93 H           5.7403    1.1384    0.0000 H       1  UNL1        0.0740
     94 H           7.5592    4.5490    0.0000 H       1  UNL1        0.2923
     95 H           5.8209    2.9357    0.0000 H       1  UNL1        0.2920
     96 H           6.0114   -1.5650    0.0000 H       1  UNL1        0.0689
     97 H           4.0720   -1.4376    0.0000 H       1  UNL1        0.0626
     98 H           3.2002   -2.9342    0.0000 H       1  UNL1        0.0661
     99 H           6.0061   -2.9450    0.0000 H       1  UNL1        0.0661
    100 H           4.0542   -6.0575    0.0000 H       1  UNL1        0.2924
    101 H           5.7043   -5.7539    0.0000 H       1  UNL1        0.0660
    102 H           6.3219   -6.3763    0.0000 H       1  UNL1        0.0660
    103 H           6.9443   -5.7587    0.0000 H       1  UNL1        0.0660
    104 H           2.3121   -3.7039    0.0000 H       1  UNL1        0.0660
    105 H           1.4643   -3.9275    0.0000 H       1  UNL1        0.0660
    106 H           1.6879   -4.7753    0.0000 H       1  UNL1        0.0660
@<TRIPOS>BOND
     1     1    24    1
     2     1    35    1
     3     2    25    1
     4     2    73    1
     5     3    27    1
     6     3    37    1
     7     4    32    1
     8     4    41    1
     9     5    29    1
    10     5    74    1
    11     6    33    1
    12     6    44    1
    13     7    34    1
    14     7    45    1
    15     8    36    1
    16     8    82    1
    17     9    38    1
    18     9    90    1
    19    10    43    1
    20    10    47    1
    21    11    46    1
    22    11    94    1
    23    12    48    1
    24    12    95    1
    25    13    49    1
    26    13    50    1
    27    14    50    2
    28    15    56    1
    29    15    59    1
    30    16    57    1
    31    16    60    1
    32    17    58    1
    33    17   100    1
    34    18    19    1
    35    18    20    1
    36    18    24    1
    37    18    61    1
    38    19    21    1
    39    19    25    1
    40    19    62    1
    41    20    22    1
    42    20    26    1
    43    20    63    1
    44    21    23    1
    45    21    64    1
    46    21    65    1
    47    22    23   ar
    48    22    27   ar
    49    23    28   ar
    50    24    66    1
    51    24    67    1
    52    25    68    1
    53    25    69    1
    54    26    30   ar
    55    26    31   ar
    56    27    29   ar
    57    28    32   ar
    58    28    70    1
    59    29    32   ar
    60    30    34   ar
    61    30    71    1
    62    31    33   ar
    63    31    72    1
    64    33    36   ar
    65    34    36   ar
    66    35    38   ar
    67    35    39   ar
    68    37    75    1
    69    37    76    1
    70    37    77    1
    71    38    40   ar
    72    39    42   ar
    73    39    78    1
    74    40    43   ar
    75    40    46    1
    76    41    79    1
    77    41    80    1
    78    41    81    1
    79    42    43   ar
    80    42    83    1
    81    44    84    1
    82    44    85    1
    83    44    86    1
    84    45    87    1
    85    45    88    1
    86    45    89    1
    87    46    48    2
    88    47    48    1
    89    47    49    1
    90    47    91    1
    91    49    92    1
    92    49    93    1
    93    50    51    1
    94    51    52    2
    95    51    96    1
    96    52    53    1
    97    52    97    1
    98    53    54   ar
    99    53    55   ar
   100    54    57   ar
   101    54    98    1
   102    55    56   ar
   103    55    99    1
   104    56    58   ar
   105    57    58   ar
   106    59   101    1
   107    59   102    1
   108    59   103    1
   109    60   104    1
   110    60   105    1
   111    60   106    1
