@<TRIPOS>MOLECULE
IMPHY004358
 38 41 0 0 0
SMALL
GASTEIGER

@<TRIPOS>ATOM
      1 O           8.9421   -0.0841    0.0000 O.3     1  UNL1       -0.4813
      2 O           2.6068    1.8463    0.0000 O.3     1  UNL1       -0.5067
      3 N           5.4670   -1.0007    0.0000 N.ar    1  UNL1       -0.3536
      4 C           9.2716   -1.0722    0.0000 C.3     1  UNL1        0.1235
      5 C           6.2727   -0.4185    0.0000 C.ar    1  UNL1        0.0582
      6 C           7.2509   -0.6264    0.0000 C.ar    1  UNL1        0.0407
      7 C           5.9637    0.5326    0.0000 C.ar    1  UNL1        0.0086
      8 C           7.9200    0.1168    0.0000 C.ar    1  UNL1        0.1337
      9 C           4.9696    0.5300    0.0000 C.ar    1  UNL1        0.0109
     10 C           7.6110    1.0678    0.0000 C.ar    1  UNL1       -0.0075
     11 C           4.6632   -0.4157    0.0000 C.ar    1  UNL1        0.0477
     12 C           8.5746   -1.8463    0.0000 C.2     1  UNL1       -0.0408
     13 C           6.6328    1.2757    0.0000 C.ar    1  UNL1       -0.0456
     14 C           7.5574   -1.6219    0.0000 C.2     1  UNL1       -0.0493
     15 C          10.0173   -1.7385    0.0000 C.3     1  UNL1       -0.0215
     16 C          10.2214   -0.7595    0.0000 C.3     1  UNL1       -0.0215
     17 C           4.2880    1.3095    0.0000 C.ar    1  UNL1       -0.0104
     18 C           8.2801    1.8110    0.0000 C.3     1  UNL1       -0.0362
     19 C           3.6540   -0.6474    0.0000 C.ar    1  UNL1       -0.0343
     20 C           3.2737    1.1012    0.0000 C.ar    1  UNL1        0.1176
     21 C           2.9546    0.1161    0.0000 C.ar    1  UNL1       -0.0182
     22 H           8.7639   -2.4367    0.0000 H       1  UNL1        0.0611
     23 H           5.4659   -1.6207    0.0000 H       1  UNL1        0.1659
     24 H           6.4412    1.8654    0.0000 H       1  UNL1        0.0628
     25 H           7.1373   -2.0778    0.0000 H       1  UNL1        0.0623
     26 H           9.6042   -2.2008    0.0000 H       1  UNL1        0.0271
     27 H          10.4796   -2.1516    0.0000 H       1  UNL1        0.0271
     28 H          10.4304   -1.2761    0.0000 H       1  UNL1        0.0271
     29 H          10.4153   -1.3484    0.0000 H       1  UNL1        0.0271
     30 H          10.8104   -0.5657    0.0000 H       1  UNL1        0.0271
     31 H          10.0276   -0.1706    0.0000 H       1  UNL1        0.0271
     32 H           4.4859    1.8971    0.0000 H       1  UNL1        0.0661
     33 H           8.7408    1.3961    0.0000 H       1  UNL1        0.0279
     34 H           8.6950    2.2717    0.0000 H       1  UNL1        0.0279
     35 H           7.8194    2.2258    0.0000 H       1  UNL1        0.0279
     36 H           3.4698   -1.2394    0.0000 H       1  UNL1        0.0639
     37 H           2.3488   -0.0157    0.0000 H       1  UNL1        0.0655
     38 H           2.0000    1.7192    0.0000 H       1  UNL1        0.2921
@<TRIPOS>BOND
     1     1     4    1
     2     1     8    1
     3     2    20    1
     4     2    38    1
     5     3     5   ar
     6     3    11   ar
     7     3    23    1
     8     4    12    1
     9     4    15    1
    10     4    16    1
    11     5     6   ar
    12     5     7   ar
    13     6     8   ar
    14     6    14    1
    15     7     9   ar
    16     7    13   ar
    17     8    10   ar
    18     9    11   ar
    19     9    17   ar
    20    10    13   ar
    21    10    18    1
    22    11    19   ar
    23    12    14    2
    24    12    22    1
    25    13    24    1
    26    14    25    1
    27    15    26    1
    28    15    27    1
    29    15    28    1
    30    16    29    1
    31    16    30    1
    32    16    31    1
    33    17    20   ar
    34    17    32    1
    35    18    33    1
    36    18    34    1
    37    18    35    1
    38    19    21   ar
    39    19    36    1
    40    20    21   ar
    41    21    37    1
