@<TRIPOS>MOLECULE
IMPHY010398
 71 75 0 0 0
SMALL
GASTEIGER

@<TRIPOS>ATOM
      1 O           5.6690   -2.3845    0.0000 O.3     1  UNL1       -0.3636
      2 O           4.4206   -2.5531    0.0000 O.3     1  UNL1       -0.4607
      3 O           4.3364    2.2967    0.0000 O.3     1  UNL1       -0.3372
      4 O           7.9011   -1.5185    0.0000 O.3     1  UNL1       -0.4585
      5 O           6.1690   -2.5185    0.0000 O.3     1  UNL1       -0.4640
      6 O           3.4030    3.9485    0.0000 O.2     1  UNL1       -0.4708
      7 O           2.6887   -2.5731    0.0000 O.2     1  UNL1       -0.2512
      8 O           8.7671   -0.0185    0.0000 O.2     1  UNL1       -0.2512
      9 O           5.3030   -4.0185    0.0000 O.2     1  UNL1       -0.2512
     10 C           5.3030   -1.0185    0.0000 C.3     1  UNL1        0.0797
     11 C           5.3030   -0.0185    0.0000 C.3     1  UNL1       -0.0179
     12 C           6.1690   -1.5185    0.0000 C.3     1  UNL1        0.1416
     13 C           4.4090    0.5162    0.0000 C.3     1  UNL1        0.0006
     14 C           4.4090   -1.5532    0.0000 C.3     1  UNL1        0.1151
     15 C           3.5030    0.0023    0.0000 C.3     1  UNL1       -0.0325
     16 C           7.0350   -1.0185    0.0000 C.3     1  UNL1        0.1348
     17 C           6.1690    0.4815    0.0000 C.3     1  UNL1       -0.0454
     18 C           6.6690   -2.3845    0.0000 C.3     1  UNL1        0.0819
     19 C           3.5030   -1.0393    0.0000 C.3     1  UNL1       -0.0117
     20 C           3.9191    1.3879    0.0000 C.3     1  UNL1        0.0693
     21 C           7.0350   -0.0185    0.0000 C.3     1  UNL1       -0.0125
     22 C           5.3030   -2.0185    0.0000 C.3     1  UNL1        0.1046
     23 C           4.9190    1.3763    0.0000 C.3     1  UNL1       -0.0567
     24 C           2.9258    1.5039    0.0000 C.3     1  UNL1       -0.0138
     25 C           2.6389    0.5056    0.0000 C.3     1  UNL1       -0.0617
     26 C           2.7292    2.4844    0.0000 C.3     1  UNL1        0.0451
     27 C           3.6010    2.9744    0.0000 C.3     1  UNL1        0.2075
     28 C           2.0000    3.1600    0.0000 C.2     1  UNL1       -0.0405
     29 C           3.5604   -3.0631    0.0000 C.2     1  UNL1        0.3042
     30 C           8.7671   -1.0185    0.0000 C.2     1  UNL1        0.3043
     31 C           6.1690   -3.5185    0.0000 C.2     1  UNL1        0.3040
     32 C           2.4156    4.0630    0.0000 C.2     1  UNL1        0.0844
     33 C           3.5720   -4.0630    0.0000 C.3     1  UNL1        0.0332
     34 C           9.6331   -1.5185    0.0000 C.3     1  UNL1        0.0332
     35 C           7.0350   -4.0185    0.0000 C.3     1  UNL1        0.0332
     36 H           5.3095    0.8315    0.0000 H       1  UNL1        0.0315
     37 H           3.8751   -1.8683    0.0000 H       1  UNL1        0.0742
     38 H           3.5066    0.6223    0.0000 H       1  UNL1        0.0305
     39 H           7.0350   -1.6385    0.0000 H       1  UNL1        0.0764
     40 H           6.5675    0.9564    0.0000 H       1  UNL1        0.0269
     41 H           5.7705    0.9564    0.0000 H       1  UNL1        0.0269
     42 H           6.7767   -2.9951    0.0000 H       1  UNL1        0.0590
     43 H           7.2516   -2.1725    0.0000 H       1  UNL1        0.0590
     44 H           2.8921   -0.9332    0.0000 H       1  UNL1        0.0304
     45 H           3.2939   -1.6230    0.0000 H       1  UNL1        0.0304
     46 H           3.4479    0.6804    0.0000 H       1  UNL1        0.0603
     47 H           7.6456   -0.1262    0.0000 H       1  UNL1        0.0302
     48 H           7.2471    0.5641    0.0000 H       1  UNL1        0.0302
     49 H           4.6924   -1.9108    0.0000 H       1  UNL1        0.0705
     50 H           5.0909   -2.6011    0.0000 H       1  UNL1        0.0705
     51 H           5.4523    1.0602    0.0000 H       1  UNL1        0.0236
     52 H           5.2352    1.9097    0.0000 H       1  UNL1        0.0236
     53 H           4.3857    1.6925    0.0000 H       1  UNL1        0.0236
     54 H           2.3085    1.4462    0.0000 H       1  UNL1        0.0298
     55 H           2.9187    0.8840    0.0000 H       1  UNL1        0.0298
     56 H           2.9510    1.0414    0.0000 H       1  UNL1        0.0233
     57 H           2.1031    0.8177    0.0000 H       1  UNL1        0.0233
     58 H           2.3268   -0.0301    0.0000 H       1  UNL1        0.0233
     59 H           1.9877    2.0689    0.0000 H       1  UNL1        0.0405
     60 H           4.3414    3.3918    0.0000 H       1  UNL1        0.1061
     61 H           1.3919    3.0391    0.0000 H       1  UNL1        0.0607
     62 H           2.1118    4.6035    0.0000 H       1  UNL1        0.1021
     63 H           2.9520   -4.0702    0.0000 H       1  UNL1        0.0342
     64 H           3.5792   -4.6830    0.0000 H       1  UNL1        0.0342
     65 H           4.1919   -4.0559    0.0000 H       1  UNL1        0.0342
     66 H           9.3231   -2.0554    0.0000 H       1  UNL1        0.0342
     67 H          10.1700   -1.8285    0.0000 H       1  UNL1        0.0342
     68 H           9.9431   -0.9816    0.0000 H       1  UNL1        0.0342
     69 H           6.7250   -4.5554    0.0000 H       1  UNL1        0.0342
     70 H           7.5720   -4.3285    0.0000 H       1  UNL1        0.0342
     71 H           7.3450   -3.4816    0.0000 H       1  UNL1        0.0342
@<TRIPOS>BOND
     1    12     1    1
     2     1    18    1
     3    14     2    1
     4     2    29    1
     5     3    20    1
     6     3    27    1
     7    16     4    1
     8     4    30    1
     9     5    22    1
    10     5    31    1
    11     6    27    1
    12     6    32    1
    13     7    29    2
    14     8    30    2
    15     9    31    2
    16    10    11    1
    17    10    12    1
    18    10    14    1
    19    10    22    1
    20    11    13    1
    21    11    17    1
    22    11    36    1
    23    12    16    1
    24    12    18    1
    25    13    15    1
    26    13    20    1
    27    13    23    1
    28    14    19    1
    29    14    37    1
    30    15    19    1
    31    15    25    1
    32    15    38    1
    33    16    21    1
    34    16    39    1
    35    17    21    1
    36    17    40    1
    37    17    41    1
    38    18    42    1
    39    18    43    1
    40    19    44    1
    41    19    45    1
    42    20    24    1
    43    20    46    1
    44    21    47    1
    45    21    48    1
    46    22    49    1
    47    22    50    1
    48    23    51    1
    49    23    52    1
    50    23    53    1
    51    24    26    1
    52    24    54    1
    53    24    55    1
    54    25    56    1
    55    25    57    1
    56    25    58    1
    57    26    27    1
    58    26    28    1
    59    26    59    1
    60    27    60    1
    61    28    32    2
    62    28    61    1
    63    29    33    1
    64    30    34    1
    65    31    35    1
    66    32    62    1
    67    33    63    1
    68    33    64    1
    69    33    65    1
    70    34    66    1
    71    34    67    1
    72    34    68    1
    73    35    69    1
    74    35    70    1
    75    35    71    1
