@<TRIPOS>MOLECULE
IMPHY007600
 31 32 0 0 0
SMALL
GASTEIGER

@<TRIPOS>ATOM
      1 O           6.1030    1.5442    0.0000 O.3     1  UNL1       -0.3727
      2 O           6.7210   -1.9674    0.0000 O.2     1  UNL1       -0.4947
      3 O           2.8660   -1.2122    0.0000 O.3     1  UNL1       -0.4951
      4 O           7.1176    2.1736    0.0000 O.2     1  UNL1       -0.2939
      5 C           6.4103    0.5926    0.0000 C.3     1  UNL1        0.1710
      6 C           5.4641    0.2878    0.0000 C.ar    1  UNL1        0.0060
      7 C           5.4641   -0.7122    0.0000 C.ar    1  UNL1        0.0265
      8 C           6.9939   -0.2122    0.0000 C.2     1  UNL1        0.0012
      9 C           6.4103   -1.0169    0.0000 C.2     1  UNL1        0.1272
     10 C           7.2204    1.1789    0.0000 C.2     1  UNL1        0.1702
     11 C           4.5981    0.7878    0.0000 C.ar    1  UNL1       -0.0510
     12 C           4.5981   -1.2122    0.0000 C.ar    1  UNL1       -0.0090
     13 C           3.7320   -0.7122    0.0000 C.ar    1  UNL1        0.1208
     14 C           3.7320    0.2878    0.0000 C.ar    1  UNL1       -0.0195
     15 C           8.1332    0.7706    0.0000 C.3     1  UNL1       -0.0025
     16 C           7.6995   -2.1736    0.0000 C.3     1  UNL1        0.0788
     17 C           2.0000   -0.7122    0.0000 C.3     1  UNL1        0.0788
     18 H           7.6139   -0.2122    0.0000 H       1  UNL1        0.0645
     19 H           4.5981    1.4078    0.0000 H       1  UNL1        0.0623
     20 H           4.5981   -1.8322    0.0000 H       1  UNL1        0.0661
     21 H           3.1951    0.5978    0.0000 H       1  UNL1        0.0654
     22 H           5.4967    1.6741    0.0000 H       1  UNL1        0.2115
     23 H           7.8800    0.2047    0.0000 H       1  UNL1        0.0307
     24 H           8.6992    0.5175    0.0000 H       1  UNL1        0.0307
     25 H           8.3864    1.3366    0.0000 H       1  UNL1        0.0307
     26 H           7.5716   -2.7803    0.0000 H       1  UNL1        0.0660
     27 H           8.3062   -2.3015    0.0000 H       1  UNL1        0.0660
     28 H           7.8274   -1.5670    0.0000 H       1  UNL1        0.0660
     29 H           2.3100   -0.1752    0.0000 H       1  UNL1        0.0660
     30 H           1.4631   -0.4022    0.0000 H       1  UNL1        0.0660
     31 H           1.6900   -1.2491    0.0000 H       1  UNL1        0.0660
@<TRIPOS>BOND
     1     1     5    1
     2     1    22    1
     3     2     9    1
     4     2    16    1
     5     3    13    1
     6     3    17    1
     7     4    10    2
     8     5     6    1
     9     5     8    1
    10     5    10    1
    11     6     7   ar
    12     6    11   ar
    13     7     9    1
    14     7    12   ar
    15     8     9    2
    16     8    18    1
    17    10    15    1
    18    11    14   ar
    19    11    19    1
    20    12    13   ar
    21    12    20    1
    22    13    14   ar
    23    14    21    1
    24    15    23    1
    25    15    24    1
    26    15    25    1
    27    16    26    1
    28    16    27    1
    29    16    28    1
    30    17    29    1
    31    17    30    1
    32    17    31    1
