@<TRIPOS>MOLECULE
IMPHY006427
 38 40 0 0 0
SMALL
GASTEIGER

@<TRIPOS>ATOM
      1 O           8.1465   -2.1315    0.0000 O.3     1  UNL1       -0.5008
      2 O           6.3981    1.9031    0.0000 O.2     1  UNL1       -0.2861
      3 O           6.3981   -2.0969    0.0000 O.2     1  UNL1       -0.2863
      4 O           4.6497   -2.1315    0.0000 O.3     1  UNL1       -0.5008
      5 O          10.7961    0.4306    0.0000 O.3     1  UNL1       -0.3900
      6 O           9.0067    2.4477    0.0000 O.co2   1  UNL1       -0.5760
      7 O           7.2747    2.4276    0.0000 O.2     1  UNL1        0.0415
      8 O          10.7961   -0.6244    0.0000 O.co2   1  UNL1       -0.5759
      9 O           9.9243   -2.1210    0.0000 O.2     1  UNL1        0.0416
     10 O           3.7895    2.4477    0.0000 O.co2   1  UNL1       -0.5760
     11 O           5.5214    2.4276    0.0000 O.2     1  UNL1        0.0415
     12 O           2.0000   -0.6244    0.0000 O.co2   1  UNL1       -0.5759
     13 O           2.8718   -2.1210    0.0000 O.2     1  UNL1        0.0416
     14 N           8.1465    1.9377    0.0000 N.pl3   1  UNL1        0.0810
     15 N           9.9282   -1.1211    0.0000 N.pl3   1  UNL1        0.0840
     16 N           4.6497    1.9377    0.0000 N.pl3   1  UNL1        0.0806
     17 N           2.8680   -1.1211    0.0000 N.pl3   1  UNL1        0.0837
     18 C           7.2641    0.4031    0.0000 C.ar    1  UNL1        0.1145
     19 C           7.2641   -0.5969    0.0000 C.ar    1  UNL1        0.0879
     20 C           5.5320    0.4031    0.0000 C.ar    1  UNL1        0.1142
     21 C           5.5320   -0.5969    0.0000 C.ar    1  UNL1        0.0879
     22 C           8.1580    0.9378    0.0000 C.ar    1  UNL1        0.2967
     23 C           6.3981    0.9031    0.0000 C.2     1  UNL1        0.2078
     24 C           6.3981   -1.0969    0.0000 C.2     1  UNL1        0.2024
     25 C           9.0641    0.4239    0.0000 C.ar    1  UNL1        0.1359
     26 C           8.1580   -1.1316    0.0000 C.ar    1  UNL1        0.2072
     27 C           9.0641   -0.6177    0.0000 C.ar    1  UNL1        0.3266
     28 C           4.6381    0.9378    0.0000 C.ar    1  UNL1        0.2913
     29 C           4.6381   -1.1316    0.0000 C.ar    1  UNL1        0.2069
     30 C           3.7320   -0.6177    0.0000 C.ar    1  UNL1        0.3212
     31 C           3.7320    0.4239    0.0000 C.ar    1  UNL1        0.0972
     32 C           9.9282    0.9273    0.0000 C.3     1  UNL1        0.0823
     33 H           3.1963    0.7360    0.0000 H       1  UNL1        0.0756
     34 H          10.3249    1.4037    0.0000 H       1  UNL1        0.0612
     35 H           9.5278    1.4007    0.0000 H       1  UNL1        0.0612
     36 H           8.6798   -2.4477    0.0000 H       1  UNL1        0.2924
     37 H           4.1164   -2.4477    0.0000 H       1  UNL1        0.2924
     38 H          11.3319    0.7427    0.0000 H       1  UNL1        0.2099
@<TRIPOS>UNITY_ATOM_ATTR
6 1
charge -1
8 1
charge -1
10 1
charge -1
12 1
charge -1
14 1
charge 1
15 1
charge 1
16 1
charge 1
17 1
charge 1
@<TRIPOS>BOND
     1     1    26    1
     2     1    36    1
     3     2    23    2
     4     3    24    2
     5     4    29    1
     6     4    37    1
     7     5    32    1
     8     5    38    1
     9     6    14    1
    10     7    14    2
    11     8    15    1
    12     9    15    2
    13    10    16    1
    14    11    16    2
    15    12    17    1
    16    13    17    2
    17    14    22    1
    18    15    27    1
    19    16    28    1
    20    17    30    1
    21    18    19   ar
    22    18    22   ar
    23    18    23    1
    24    19    24    1
    25    19    26   ar
    26    20    21   ar
    27    20    23    1
    28    20    28   ar
    29    21    24    1
    30    21    29   ar
    31    22    25   ar
    32    25    27   ar
    33    25    32    1
    34    26    27   ar
    35    28    31   ar
    36    29    30   ar
    37    30    31   ar
    38    31    33    1
    39    32    34    1
    40    32    35    1
