@<TRIPOS>MOLECULE
IMPHY017389
 45 45 0 0 0
SMALL
GASTEIGER

@<TRIPOS>ATOM
      1 O           5.5981    4.0000    0.0000 O.2     1  UNL1       -0.2930
      2 C           3.0000   -2.5000    0.0000 C.3     1  UNL1       -0.0099
      3 C           3.0000   -3.5000    0.0000 C.3     1  UNL1       -0.0436
      4 C           3.8660   -4.0000    0.0000 C.3     1  UNL1       -0.0486
      5 C           3.8660   -2.0000    0.0000 C.2     1  UNL1       -0.0427
      6 C           4.7320   -3.5000    0.0000 C.3     1  UNL1       -0.0314
      7 C           4.7320   -2.5000    0.0000 C.2     1  UNL1       -0.0689
      8 C           2.0000   -2.5000    0.0000 C.3     1  UNL1       -0.0558
      9 C           2.5000   -1.6340    0.0000 C.3     1  UNL1       -0.0558
     10 C           3.8660   -1.0000    0.0000 C.2     1  UNL1       -0.0579
     11 C           5.5981   -2.0000    0.0000 C.3     1  UNL1       -0.0432
     12 C           4.7320   -0.5000    0.0000 C.2     1  UNL1       -0.0586
     13 C           4.7320    0.5000    0.0000 C.2     1  UNL1       -0.0504
     14 C           3.8660    1.0000    0.0000 C.3     1  UNL1       -0.0397
     15 C           5.5981    1.0000    0.0000 C.2     1  UNL1       -0.0587
     16 C           5.5981    2.0000    0.0000 C.2     1  UNL1       -0.0582
     17 C           6.4641    2.5000    0.0000 C.2     1  UNL1       -0.0195
     18 C           6.4641    3.5000    0.0000 C.2     1  UNL1        0.1530
     19 C           7.3301    4.0000    0.0000 C.3     1  UNL1       -0.0020
     20 H           2.3894   -3.3923    0.0000 H       1  UNL1        0.0274
     21 H           2.7880   -4.0826    0.0000 H       1  UNL1        0.0274
     22 H           3.4675   -4.4750    0.0000 H       1  UNL1        0.0269
     23 H           4.2646   -4.4750    0.0000 H       1  UNL1        0.0269
     24 H           4.9441   -4.0826    0.0000 H       1  UNL1        0.0310
     25 H           5.3426   -3.3923    0.0000 H       1  UNL1        0.0310
     26 H           2.0000   -1.8800    0.0000 H       1  UNL1        0.0238
     27 H           1.3800   -2.5000    0.0000 H       1  UNL1        0.0238
     28 H           2.0000   -3.1200    0.0000 H       1  UNL1        0.0238
     29 H           3.0369   -1.3240    0.0000 H       1  UNL1        0.0238
     30 H           2.1900   -1.0970    0.0000 H       1  UNL1        0.0238
     31 H           1.9631   -1.9440    0.0000 H       1  UNL1        0.0238
     32 H           3.3291   -0.6900    0.0000 H       1  UNL1        0.0621
     33 H           5.9081   -2.5369    0.0000 H       1  UNL1        0.0275
     34 H           6.1350   -1.6900    0.0000 H       1  UNL1        0.0275
     35 H           5.2881   -1.4631    0.0000 H       1  UNL1        0.0275
     36 H           5.2690   -0.8100    0.0000 H       1  UNL1        0.0620
     37 H           4.1760    1.5369    0.0000 H       1  UNL1        0.0278
     38 H           3.3291    1.3100    0.0000 H       1  UNL1        0.0278
     39 H           3.5560    0.4631    0.0000 H       1  UNL1        0.0278
     40 H           6.1350    0.6900    0.0000 H       1  UNL1        0.0620
     41 H           5.0611    2.3100    0.0000 H       1  UNL1        0.0619
     42 H           7.0010    2.1900    0.0000 H       1  UNL1        0.0652
     43 H           7.6401    3.4631    0.0000 H       1  UNL1        0.0309
     44 H           7.8671    4.3100    0.0000 H       1  UNL1        0.0309
     45 H           7.0201    4.5369    0.0000 H       1  UNL1        0.0309
@<TRIPOS>BOND
     1     1    18    2
     2     2     3    1
     3     2     5    1
     4     2     8    1
     5     2     9    1
     6     3     4    1
     7     3    20    1
     8     3    21    1
     9     4     6    1
    10     4    22    1
    11     4    23    1
    12     5     7    2
    13     5    10    1
    14     6     7    1
    15     6    24    1
    16     6    25    1
    17     7    11    1
    18     8    26    1
    19     8    27    1
    20     8    28    1
    21     9    29    1
    22     9    30    1
    23     9    31    1
    24    10    12    2
    25    10    32    1
    26    11    33    1
    27    11    34    1
    28    11    35    1
    29    12    13    1
    30    12    36    1
    31    13    14    1
    32    13    15    2
    33    14    37    1
    34    14    38    1
    35    14    39    1
    36    15    16    1
    37    15    40    1
    38    16    17    2
    39    16    41    1
    40    17    18    1
    41    17    42    1
    42    18    19    1
    43    19    43    1
    44    19    44    1
    45    19    45    1
