@<TRIPOS>MOLECULE
IMPHY015682
 21 20 0 0 0
SMALL
GASTEIGER

@<TRIPOS>ATOM
      1 O           2.0000   -0.0000    0.0000 O.2     1  UNL1       -0.3004
      2 C           3.7320    0.0000    0.0000 C.3     1  UNL1        0.0371
      3 C           3.7320   -1.0000    0.0000 C.3     1  UNL1       -0.0519
      4 C           4.5981    0.5000    0.0000 C.2     1  UNL1       -0.0325
      5 C           7.1962   -0.0000    0.0000 C.3     1  UNL1       -0.0301
      6 C           2.8660    0.5000    0.0000 C.2     1  UNL1        0.1274
      7 C           6.3301   -0.5000    0.0000 C.2     1  UNL1       -0.0424
      8 C           8.0622   -0.5000    0.0000 C.3     1  UNL1       -0.0612
      9 C           5.4641    0.0000    0.0000 C.1     1  UNL1       -0.1277
     10 H           3.7320    0.6200    0.0000 H       1  UNL1        0.0420
     11 H           3.1120   -1.0000    0.0000 H       1  UNL1        0.0239
     12 H           3.7320   -1.6200    0.0000 H       1  UNL1        0.0239
     13 H           4.3520   -1.0000    0.0000 H       1  UNL1        0.0239
     14 H           4.5981    1.1200    0.0000 H       1  UNL1        0.0666
     15 H           7.5947    0.4749    0.0000 H       1  UNL1        0.0311
     16 H           6.7976    0.4749    0.0000 H       1  UNL1        0.0311
     17 H           2.8660    1.1200    0.0000 H       1  UNL1        0.1032
     18 H           6.3301   -1.1200    0.0000 H       1  UNL1        0.0659
     19 H           7.7522   -1.0369    0.0000 H       1  UNL1        0.0233
     20 H           8.5991   -0.8100    0.0000 H       1  UNL1        0.0233
     21 H           8.3722    0.0369    0.0000 H       1  UNL1        0.0233
@<TRIPOS>BOND
     1     1     6    2
     2     2     3    1
     3     2     4    1
     4     2     6    1
     5     2    10    1
     6     3    11    1
     7     3    12    1
     8     3    13    1
     9     4     9    2
    10     4    14    1
    11     5     7    1
    12     5     8    1
    13     5    15    1
    14     5    16    1
    15     6    17    1
    16     7     9    2
    17     7    18    1
    18     8    19    1
    19     8    20    1
    20     8    21    1
