@<TRIPOS>MOLECULE
IMPHY004862
 25 27 0 0 0
SMALL
GASTEIGER

@<TRIPOS>ATOM
      1 N           5.5321    0.5000    0.0000 N.pl3   1  UNL1       -0.2200
      2 N           4.6660   -1.0000    0.0000 N.2     1  UNL1       -0.0462
      3 C           6.4783    0.8047    0.0000 C.3     1  UNL1        0.0811
      4 C           7.0619    0.0000    0.0000 C.3     1  UNL1       -0.0058
      5 C           6.4783   -0.8047    0.0000 C.3     1  UNL1        0.0543
      6 C           5.5321   -0.5000    0.0000 C.2     1  UNL1        0.2899
      7 C           4.6660    1.0000    0.0000 C.3     1  UNL1        0.1096
      8 C           3.8000    0.5000    0.0000 C.ar    1  UNL1        0.0425
      9 C           3.8000   -0.5000    0.0000 C.ar    1  UNL1        0.1827
     10 C           2.9061    1.0347    0.0000 C.ar    1  UNL1       -0.0509
     11 C           2.9061   -1.0347    0.0000 C.ar    1  UNL1       -0.0105
     12 C           2.0000    0.5208    0.0000 C.ar    1  UNL1       -0.0611
     13 C           2.0000   -0.5208    0.0000 C.ar    1  UNL1       -0.0576
     14 H           7.0157    1.1140    0.0000 H       1  UNL1        0.0726
     15 H           6.2272    1.3716    0.0000 H       1  UNL1        0.0726
     16 H           7.5228   -0.4147    0.0000 H       1  UNL1        0.0307
     17 H           7.5228    0.4147    0.0000 H       1  UNL1        0.0307
     18 H           6.2272   -1.3716    0.0000 H       1  UNL1        0.0388
     19 H           7.0157   -1.1140    0.0000 H       1  UNL1        0.0388
     20 H           5.0646    1.4750    0.0000 H       1  UNL1        0.0779
     21 H           4.2675    1.4750    0.0000 H       1  UNL1        0.0779
     22 H           2.9132    1.6546    0.0000 H       1  UNL1        0.0623
     23 H           2.9132   -1.6546    0.0000 H       1  UNL1        0.0661
     24 H           1.4643    0.8329    0.0000 H       1  UNL1        0.0618
     25 H           1.4643   -0.8329    0.0000 H       1  UNL1        0.0619
@<TRIPOS>BOND
     1     1     3    1
     2     1     6    1
     3     1     7    1
     4     2     6    2
     5     2     9    1
     6     3     4    1
     7     3    14    1
     8     3    15    1
     9     4     5    1
    10     4    16    1
    11     4    17    1
    12     5     6    1
    13     5    18    1
    14     5    19    1
    15     7     8    1
    16     7    20    1
    17     7    21    1
    18     8     9   ar
    19     8    10   ar
    20     9    11   ar
    21    10    12   ar
    22    10    22    1
    23    11    13   ar
    24    11    23    1
    25    12    13   ar
    26    12    24    1
    27    13    25    1
