@<TRIPOS>MOLECULE
IMPHY004540
 48 50 0 0 0
SMALL
GASTEIGER

@<TRIPOS>ATOM
      1 O           6.0010   -0.5950    0.0000 O.3     1  UNL1       -0.3095
      2 O           6.8671    2.9050    0.0000 O.3     1  UNL1       -0.3833
      3 O           5.1350    0.9050    0.0000 O.2     1  UNL1       -0.4701
      4 O           4.2690   -0.5950    0.0000 O.3     1  UNL1       -0.3429
      5 O           6.0010   -2.5950    0.0000 O.3     1  UNL1       -0.3841
      6 O           4.2690   -3.5950    0.0000 O.3     1  UNL1       -0.3864
      7 O           2.5369   -2.5950    0.0000 O.3     1  UNL1       -0.3866
      8 O           5.1350    3.9050    0.0000 O.2     1  UNL1       -0.2958
      9 C           6.8671    0.9050    0.0000 C.3     1  UNL1        0.0573
     10 C           6.8671    1.9050    0.0000 C.3     1  UNL1        0.1055
     11 C           7.8133    0.6003    0.0000 C.3     1  UNL1       -0.0323
     12 C           7.8133    2.2097    0.0000 C.3     1  UNL1       -0.0189
     13 C           8.3969    1.4050    0.0000 C.3     1  UNL1       -0.0470
     14 C           6.0010    0.4050    0.0000 C.3     1  UNL1        0.2094
     15 C           6.0010    2.4050    0.0000 C.2     1  UNL1        0.0578
     16 C           8.1240   -0.3503    0.0000 C.3     1  UNL1       -0.0619
     17 C           5.1350   -1.0950    0.0000 C.3     1  UNL1        0.1917
     18 C           5.1350    1.9050    0.0000 C.2     1  UNL1        0.0968
     19 C           5.1350   -2.0950    0.0000 C.3     1  UNL1        0.1342
     20 C           4.2690   -2.5950    0.0000 C.3     1  UNL1        0.1140
     21 C           3.4030   -2.0950    0.0000 C.3     1  UNL1        0.1095
     22 C           3.4030   -1.0950    0.0000 C.3     1  UNL1        0.0873
     23 C           6.0010    3.4050    0.0000 C.2     1  UNL1        0.1519
     24 C           2.5369   -0.5950    0.0000 C.3     1  UNL1       -0.0361
     25 H           6.9327    0.2885    0.0000 H       1  UNL1        0.0395
     26 H           7.3758    0.1609    0.0000 H       1  UNL1        0.0304
     27 H           8.3507    2.5190    0.0000 H       1  UNL1        0.0296
     28 H           7.5622    2.7766    0.0000 H       1  UNL1        0.0296
     29 H           8.8578    0.9903    0.0000 H       1  UNL1        0.0269
     30 H           8.8578    1.8197    0.0000 H       1  UNL1        0.0269
     31 H           6.5380    0.0950    0.0000 H       1  UNL1        0.1060
     32 H           7.5346   -0.5429    0.0000 H       1  UNL1        0.0233
     33 H           8.3166   -0.9396    0.0000 H       1  UNL1        0.0233
     34 H           8.7133   -0.1576    0.0000 H       1  UNL1        0.0233
     35 H           5.6720   -1.4050    0.0000 H       1  UNL1        0.0939
     36 H           7.4040    3.2150    0.0000 H       1  UNL1        0.2106
     37 H           4.5981    2.2150    0.0000 H       1  UNL1        0.1029
     38 H           5.1350   -2.7150    0.0000 H       1  UNL1        0.0671
     39 H           3.7320   -2.9050    0.0000 H       1  UNL1        0.0648
     40 H           2.8660   -1.7850    0.0000 H       1  UNL1        0.0646
     41 H           3.4030   -0.4750    0.0000 H       1  UNL1        0.0621
     42 H           6.5380    3.7150    0.0000 H       1  UNL1        0.1080
     43 H           2.8469   -0.0581    0.0000 H       1  UNL1        0.0255
     44 H           2.0000   -0.2850    0.0000 H       1  UNL1        0.0255
     45 H           2.2269   -1.1319    0.0000 H       1  UNL1        0.0255
     46 H           6.0010   -3.2150    0.0000 H       1  UNL1        0.2101
     47 H           3.7320   -3.9050    0.0000 H       1  UNL1        0.2100
     48 H           2.0000   -2.2850    0.0000 H       1  UNL1        0.2100
@<TRIPOS>BOND
     1     1    14    1
     2     1    17    1
     3    10     2    1
     4     2    36    1
     5     3    14    1
     6     3    18    1
     7     4    17    1
     8     4    22    1
     9     5    19    1
    10     5    46    1
    11     6    20    1
    12     6    47    1
    13     7    21    1
    14     7    48    1
    15     8    23    2
    16     9    10    1
    17     9    11    1
    18     9    14    1
    19     9    25    1
    20    10    12    1
    21    10    15    1
    22    11    13    1
    23    11    16    1
    24    11    26    1
    25    12    13    1
    26    12    27    1
    27    12    28    1
    28    13    29    1
    29    13    30    1
    30    14    31    1
    31    15    18    2
    32    15    23    1
    33    16    32    1
    34    16    33    1
    35    16    34    1
    36    17    19    1
    37    17    35    1
    38    18    37    1
    39    19    20    1
    40    19    38    1
    41    20    21    1
    42    20    39    1
    43    21    22    1
    44    21    40    1
    45    22    24    1
    46    22    41    1
    47    23    42    1
    48    24    43    1
    49    24    44    1
    50    24    45    1
