@<TRIPOS>MOLECULE
IMPHY003081
 21 21 0 0 0
SMALL
GASTEIGER

@<TRIPOS>ATOM
      1 O           2.0000    1.7500    0.0000 O.3     1  UNL1       -0.3849
      2 O           3.7320    2.7500    0.0000 O.3     1  UNL1       -0.3921
      3 O           2.8660   -2.7500    0.0000 O.3     1  UNL1       -0.5068
      4 C           2.8660    1.2500    0.0000 C.3     1  UNL1        0.1032
      5 C           2.8660    0.2500    0.0000 C.ar    1  UNL1       -0.0167
      6 C           3.7320    1.7500    0.0000 C.3     1  UNL1        0.0743
      7 C           2.0000   -0.2500    0.0000 C.ar    1  UNL1       -0.0526
      8 C           3.7320   -0.2500    0.0000 C.ar    1  UNL1       -0.0526
      9 C           2.0000   -1.2500    0.0000 C.ar    1  UNL1       -0.0198
     10 C           3.7320   -1.2500    0.0000 C.ar    1  UNL1       -0.0198
     11 C           2.8660   -1.7500    0.0000 C.ar    1  UNL1        0.1169
     12 H           2.8660    2.1000    0.0000 H       1  UNL1        0.0667
     13 H           3.9441    1.1674    0.0000 H       1  UNL1        0.0586
     14 H           4.3426    1.8577    0.0000 H       1  UNL1        0.0586
     15 H           1.4631    0.0600    0.0000 H       1  UNL1        0.0622
     16 H           4.2690    0.0600    0.0000 H       1  UNL1        0.0622
     17 H           1.4631   -1.5600    0.0000 H       1  UNL1        0.0654
     18 H           4.2690   -1.5600    0.0000 H       1  UNL1        0.0654
     19 H           2.0000    2.3700    0.0000 H       1  UNL1        0.2103
     20 H           4.2690    3.0600    0.0000 H       1  UNL1        0.2095
     21 H           2.3291   -3.0600    0.0000 H       1  UNL1        0.2921
@<TRIPOS>BOND
     1     1     4    1
     2     1    19    1
     3     2     6    1
     4     2    20    1
     5     3    11    1
     6     3    21    1
     7     4     5    1
     8     4     6    1
     9     4    12    1
    10     5     7   ar
    11     5     8   ar
    12     6    13    1
    13     6    14    1
    14     7     9   ar
    15     7    15    1
    16     8    10   ar
    17     8    16    1
    18     9    11   ar
    19     9    17    1
    20    10    11   ar
    21    10    18    1
