@<TRIPOS>MOLECULE
IMPHY010988
 60 59 0 0 0
SMALL
GASTEIGER

@<TRIPOS>ATOM
      1 O           2.5369    0.4400    0.0000 O.3     1  UNL1       -0.4775
      2 O           3.4030   -1.0600    0.0000 O.2     1  UNL1       -0.2458
      3 C          12.9292    0.4400    0.0000 C.3     1  UNL1       -0.0531
      4 C          12.0632   -0.0600    0.0000 C.3     1  UNL1       -0.0531
      5 C          13.7953   -0.0600    0.0000 C.3     1  UNL1       -0.0531
      6 C          11.1972    0.4400    0.0000 C.3     1  UNL1       -0.0531
      7 C          14.6613    0.4400    0.0000 C.3     1  UNL1       -0.0531
      8 C          10.3312   -0.0600    0.0000 C.3     1  UNL1       -0.0531
      9 C          15.5273   -0.0600    0.0000 C.3     1  UNL1       -0.0531
     10 C           9.4651    0.4400    0.0000 C.3     1  UNL1       -0.0531
     11 C          16.3933    0.4400    0.0000 C.3     1  UNL1       -0.0531
     12 C           8.5991   -0.0600    0.0000 C.3     1  UNL1       -0.0530
     13 C          17.2594   -0.0600    0.0000 C.3     1  UNL1       -0.0531
     14 C           7.7331    0.4400    0.0000 C.3     1  UNL1       -0.0528
     15 C          18.1254    0.4400    0.0000 C.3     1  UNL1       -0.0533
     16 C           6.8671   -0.0600    0.0000 C.3     1  UNL1       -0.0496
     17 C          18.9914   -0.0600    0.0000 C.3     1  UNL1       -0.0559
     18 C           6.0010    0.4400    0.0000 C.3     1  UNL1       -0.0343
     19 C          19.8574    0.4400    0.0000 C.3     1  UNL1       -0.0653
     20 C           5.1350   -0.0600    0.0000 C.2     1  UNL1       -0.0773
     21 C           4.2690    0.4400    0.0000 C.2     1  UNL1        0.0184
     22 C           3.4030   -0.0600    0.0000 C.2     1  UNL1        0.3292
     23 H          13.3278    0.9149    0.0000 H       1  UNL1        0.0265
     24 H          12.5307    0.9149    0.0000 H       1  UNL1        0.0265
     25 H          11.6647   -0.5349    0.0000 H       1  UNL1        0.0265
     26 H          12.4617   -0.5349    0.0000 H       1  UNL1        0.0265
     27 H          13.3967   -0.5349    0.0000 H       1  UNL1        0.0265
     28 H          14.1938   -0.5349    0.0000 H       1  UNL1        0.0265
     29 H          11.5957    0.9149    0.0000 H       1  UNL1        0.0265
     30 H          10.7987    0.9149    0.0000 H       1  UNL1        0.0265
     31 H          15.0598    0.9149    0.0000 H       1  UNL1        0.0265
     32 H          14.2628    0.9149    0.0000 H       1  UNL1        0.0265
     33 H           9.9326   -0.5349    0.0000 H       1  UNL1        0.0265
     34 H          10.7297   -0.5349    0.0000 H       1  UNL1        0.0265
     35 H          15.1288   -0.5349    0.0000 H       1  UNL1        0.0265
     36 H          15.9258   -0.5349    0.0000 H       1  UNL1        0.0265
     37 H           9.8637    0.9149    0.0000 H       1  UNL1        0.0265
     38 H           9.0666    0.9149    0.0000 H       1  UNL1        0.0265
     39 H          16.7919    0.9149    0.0000 H       1  UNL1        0.0265
     40 H          15.9948    0.9149    0.0000 H       1  UNL1        0.0265
     41 H           8.2006   -0.5349    0.0000 H       1  UNL1        0.0265
     42 H           8.9976   -0.5349    0.0000 H       1  UNL1        0.0265
     43 H          16.8608   -0.5349    0.0000 H       1  UNL1        0.0265
     44 H          17.6579   -0.5349    0.0000 H       1  UNL1        0.0265
     45 H           8.1316    0.9149    0.0000 H       1  UNL1        0.0265
     46 H           7.3346    0.9149    0.0000 H       1  UNL1        0.0265
     47 H          18.5239    0.9149    0.0000 H       1  UNL1        0.0265
     48 H          17.7269    0.9149    0.0000 H       1  UNL1        0.0265
     49 H           6.4685   -0.5349    0.0000 H       1  UNL1        0.0268
     50 H           7.2656   -0.5349    0.0000 H       1  UNL1        0.0268
     51 H          18.5929   -0.5349    0.0000 H       1  UNL1        0.0263
     52 H          19.3899   -0.5349    0.0000 H       1  UNL1        0.0263
     53 H           6.3996    0.9149    0.0000 H       1  UNL1        0.0307
     54 H           5.6025    0.9149    0.0000 H       1  UNL1        0.0307
     55 H          20.1674   -0.0969    0.0000 H       1  UNL1        0.0230
     56 H          20.3944    0.7500    0.0000 H       1  UNL1        0.0230
     57 H          19.5474    0.9769    0.0000 H       1  UNL1        0.0230
     58 H           5.1350   -0.6800    0.0000 H       1  UNL1        0.0574
     59 H           4.2690    1.0600    0.0000 H       1  UNL1        0.0686
     60 H           2.0000    0.1300    0.0000 H       1  UNL1        0.2954
@<TRIPOS>BOND
     1     1    22    1
     2     1    60    1
     3     2    22    2
     4     3     4    1
     5     3     5    1
     6     3    23    1
     7     3    24    1
     8     4     6    1
     9     4    25    1
    10     4    26    1
    11     5     7    1
    12     5    27    1
    13     5    28    1
    14     6     8    1
    15     6    29    1
    16     6    30    1
    17     7     9    1
    18     7    31    1
    19     7    32    1
    20     8    10    1
    21     8    33    1
    22     8    34    1
    23     9    11    1
    24     9    35    1
    25     9    36    1
    26    10    12    1
    27    10    37    1
    28    10    38    1
    29    11    13    1
    30    11    39    1
    31    11    40    1
    32    12    14    1
    33    12    41    1
    34    12    42    1
    35    13    15    1
    36    13    43    1
    37    13    44    1
    38    14    16    1
    39    14    45    1
    40    14    46    1
    41    15    17    1
    42    15    47    1
    43    15    48    1
    44    16    18    1
    45    16    49    1
    46    16    50    1
    47    17    19    1
    48    17    51    1
    49    17    52    1
    50    18    20    1
    51    18    53    1
    52    18    54    1
    53    19    55    1
    54    19    56    1
    55    19    57    1
    56    20    21    2
    57    20    58    1
    58    21    22    1
    59    21    59    1
