@<TRIPOS>MOLECULE
IMPHY009439
 55 57 0 0 0
SMALL
GASTEIGER

@<TRIPOS>ATOM
      1 O           6.8671   -1.2500    0.0000 O.3     1  UNL1       -0.3394
      2 O           8.5991   -1.2500    0.0000 O.3     1  UNL1       -0.3484
      3 O           5.1350   -3.2500    0.0000 O.3     1  UNL1       -0.3864
      4 O           6.8671   -4.2500    0.0000 O.3     1  UNL1       -0.3864
      5 O           8.5991   -3.2500    0.0000 O.3     1  UNL1       -0.3841
      6 O           5.1350   -0.2500    0.0000 O.3     1  UNL1       -0.4585
      7 O           3.4030   -0.2500    0.0000 O.2     1  UNL1       -0.2450
      8 O           2.5369    3.2500    0.0000 O.3     1  UNL1       -0.5032
      9 O           6.0010    3.2500    0.0000 O.3     1  UNL1       -0.5032
     10 O           4.2690    4.2500    0.0000 O.3     1  UNL1       -0.5009
     11 C           6.0010   -2.7500    0.0000 C.3     1  UNL1        0.1129
     12 C           6.8671   -3.2500    0.0000 C.3     1  UNL1        0.1141
     13 C           6.0010   -1.7500    0.0000 C.3     1  UNL1        0.1240
     14 C           7.7331   -2.7500    0.0000 C.3     1  UNL1        0.1341
     15 C           7.7331   -1.7500    0.0000 C.3     1  UNL1        0.1880
     16 C           5.1350   -1.2500    0.0000 C.3     1  UNL1        0.1215
     17 C           8.5991   -0.2500    0.0000 C.3     1  UNL1        0.0547
     18 C           9.4651    0.2500    0.0000 C.3     1  UNL1       -0.0040
     19 C           9.4651    1.2500    0.0000 C.ar    1  UNL1       -0.0452
     20 C           4.2690    0.2500    0.0000 C.2     1  UNL1        0.3395
     21 C           4.2690    1.2500    0.0000 C.ar    1  UNL1        0.0661
     22 C          10.3312    1.7500    0.0000 C.ar    1  UNL1       -0.0585
     23 C           8.5991    1.7500    0.0000 C.ar    1  UNL1       -0.0585
     24 C           5.1350    1.7500    0.0000 C.ar    1  UNL1       -0.0023
     25 C           3.4030    1.7500    0.0000 C.ar    1  UNL1       -0.0023
     26 C          10.3312    2.7500    0.0000 C.ar    1  UNL1       -0.0615
     27 C           8.5991    2.7500    0.0000 C.ar    1  UNL1       -0.0615
     28 C           9.4651    3.2500    0.0000 C.ar    1  UNL1       -0.0617
     29 C           3.4030    2.7500    0.0000 C.ar    1  UNL1        0.1628
     30 C           5.1350    2.7500    0.0000 C.ar    1  UNL1        0.1628
     31 C           4.2690    3.2500    0.0000 C.ar    1  UNL1        0.2006
     32 H           6.0010   -3.6000    0.0000 H       1  UNL1        0.0647
     33 H           7.6032   -3.6750    0.0000 H       1  UNL1        0.0648
     34 H           6.0010   -0.9000    0.0000 H       1  UNL1        0.0658
     35 H           8.4692   -2.3250    0.0000 H       1  UNL1        0.0671
     36 H           7.7331   -0.9000    0.0000 H       1  UNL1        0.0937
     37 H           4.5244   -1.1423    0.0000 H       1  UNL1        0.0725
     38 H           4.9230   -1.8326    0.0000 H       1  UNL1        0.0725
     39 H           4.5981   -2.9400    0.0000 H       1  UNL1        0.2100
     40 H           6.3301   -4.5600    0.0000 H       1  UNL1        0.2100
     41 H           9.1360   -2.9400    0.0000 H       1  UNL1        0.2101
     42 H           8.3871    0.3326    0.0000 H       1  UNL1        0.0564
     43 H           7.9885   -0.3577    0.0000 H       1  UNL1        0.0564
     44 H           9.6772   -0.3326    0.0000 H       1  UNL1        0.0335
     45 H          10.0757    0.3577    0.0000 H       1  UNL1        0.0335
     46 H          10.8681    1.4400    0.0000 H       1  UNL1        0.0620
     47 H           8.0622    1.4400    0.0000 H       1  UNL1        0.0620
     48 H           5.6720    1.4400    0.0000 H       1  UNL1        0.0663
     49 H           2.8660    1.4400    0.0000 H       1  UNL1        0.0663
     50 H          10.8681    3.0600    0.0000 H       1  UNL1        0.0618
     51 H           8.0622    3.0600    0.0000 H       1  UNL1        0.0618
     52 H           9.4651    3.8700    0.0000 H       1  UNL1        0.0618
     53 H           2.0000    2.9400    0.0000 H       1  UNL1        0.2923
     54 H           6.0010    3.8700    0.0000 H       1  UNL1        0.2923
     55 H           3.7320    4.5600    0.0000 H       1  UNL1        0.2924
@<TRIPOS>BOND
     1     1    13    1
     2     1    15    1
     3     2    15    1
     4     2    17    1
     5     3    11    1
     6     3    39    1
     7     4    12    1
     8     4    40    1
     9     5    14    1
    10     5    41    1
    11     6    16    1
    12     6    20    1
    13     7    20    2
    14     8    29    1
    15     8    53    1
    16     9    30    1
    17     9    54    1
    18    10    31    1
    19    10    55    1
    20    11    12    1
    21    11    13    1
    22    11    32    1
    23    12    14    1
    24    12    33    1
    25    13    16    1
    26    13    34    1
    27    14    15    1
    28    14    35    1
    29    15    36    1
    30    16    37    1
    31    16    38    1
    32    17    18    1
    33    17    42    1
    34    17    43    1
    35    18    19    1
    36    18    44    1
    37    18    45    1
    38    19    22   ar
    39    19    23   ar
    40    20    21    1
    41    21    24   ar
    42    21    25   ar
    43    22    26   ar
    44    22    46    1
    45    23    27   ar
    46    23    47    1
    47    24    30   ar
    48    24    48    1
    49    25    29   ar
    50    25    49    1
    51    26    28   ar
    52    26    50    1
    53    27    28   ar
    54    27    51    1
    55    28    52    1
    56    29    31   ar
    57    30    31   ar
