@<TRIPOS>MOLECULE
IMPHY016470
 23 24 0 0 0
SMALL
GASTEIGER

@<TRIPOS>ATOM
      1 O           3.7320    1.3450    0.0000 O.3     1  UNL1       -0.5065
      2 C           6.1279   -0.6550    0.0000 C.3     1  UNL1       -0.0449
      3 C           5.5443   -1.4597    0.0000 C.3     1  UNL1       -0.0270
      4 C           5.5443    0.1497    0.0000 C.3     1  UNL1       -0.0237
      5 C           4.5981   -1.1550    0.0000 C.ar    1  UNL1       -0.0405
      6 C           4.5981   -0.1550    0.0000 C.ar    1  UNL1       -0.0028
      7 C           3.7320   -1.6550    0.0000 C.ar    1  UNL1       -0.0552
      8 C           3.7320    0.3450    0.0000 C.ar    1  UNL1        0.1205
      9 C           2.8660   -1.1550    0.0000 C.ar    1  UNL1       -0.0467
     10 C           2.8660   -0.1550    0.0000 C.ar    1  UNL1       -0.0170
     11 C           2.0000   -1.6550    0.0000 C.3     1  UNL1       -0.0396
     12 H           6.5888   -1.0697    0.0000 H       1  UNL1        0.0272
     13 H           6.5888   -0.2403    0.0000 H       1  UNL1        0.0272
     14 H           5.2933   -2.0266    0.0000 H       1  UNL1        0.0313
     15 H           6.0817   -1.7690    0.0000 H       1  UNL1        0.0313
     16 H           6.0817    0.4590    0.0000 H       1  UNL1        0.0314
     17 H           5.2933    0.7166    0.0000 H       1  UNL1        0.0314
     18 H           3.7320   -2.2750    0.0000 H       1  UNL1        0.0623
     19 H           2.3291    0.1550    0.0000 H       1  UNL1        0.0657
     20 H           1.6900   -1.1181    0.0000 H       1  UNL1        0.0278
     21 H           1.4631   -1.9650    0.0000 H       1  UNL1        0.0278
     22 H           2.3100   -2.1919    0.0000 H       1  UNL1        0.0278
     23 H           3.1951    1.6550    0.0000 H       1  UNL1        0.2921
@<TRIPOS>BOND
     1     1     8    1
     2     1    23    1
     3     2     3    1
     4     2     4    1
     5     2    12    1
     6     2    13    1
     7     3     5    1
     8     3    14    1
     9     3    15    1
    10     4     6    1
    11     4    16    1
    12     4    17    1
    13     5     6   ar
    14     5     7   ar
    15     6     8   ar
    16     7     9   ar
    17     7    18    1
    18     8    10   ar
    19     9    10   ar
    20     9    11    1
    21    10    19    1
    22    11    20    1
    23    11    21    1
    24    11    22    1
