@<TRIPOS>MOLECULE
IMPHY008908
 76 79 0 0 0
SMALL
GASTEIGER

@<TRIPOS>ATOM
      1 O          10.4586   -1.2105    0.0000 O.3     1  UNL1       -0.3914
      2 O          10.1362    0.2340    0.0000 O.3     1  UNL1       -0.3885
      3 O           2.5357   -3.7629    0.0000 O.3     1  UNL1       -0.3915
      4 C           7.9288   -0.7105    0.0000 C.3     1  UNL1       -0.0211
      5 C           7.9288   -1.7105    0.0000 C.3     1  UNL1       -0.0295
      6 C           7.0628   -2.2105    0.0000 C.3     1  UNL1       -0.0306
      7 C           6.1968   -1.7105    0.0000 C.3     1  UNL1       -0.0285
      8 C           8.8750   -0.4058    0.0000 C.3     1  UNL1        0.0192
      9 C           7.0628   -0.2105    0.0000 C.3     1  UNL1       -0.0466
     10 C           8.8750   -2.0153    0.0000 C.3     1  UNL1       -0.0229
     11 C           5.2868   -2.2174    0.0000 C.3     1  UNL1       -0.0078
     12 C           9.4586   -1.2105    0.0000 C.3     1  UNL1        0.0614
     13 C           6.1968   -0.7105    0.0000 C.3     1  UNL1       -0.0486
     14 C           7.0789   -3.2520    0.0000 C.3     1  UNL1       -0.0311
     15 C           9.1857    0.5447    0.0000 C.3     1  UNL1        0.0690
     16 C           7.9288    0.2895    0.0000 C.3     1  UNL1       -0.0589
     17 C           5.2787   -3.2590    0.0000 C.2     1  UNL1       -0.0648
     18 C           4.3599   -1.6533    0.0000 C.3     1  UNL1       -0.0413
     19 C           6.1808   -3.7798    0.0000 C.2     1  UNL1       -0.0839
     20 C           5.2945   -1.2174    0.0000 C.3     1  UNL1       -0.0556
     21 C           4.3433   -3.8087    0.0000 C.3     1  UNL1       -0.0051
     22 C           9.4964    1.4952    0.0000 C.3     1  UNL1       -0.0239
     23 C           3.4120   -2.1812    0.0000 C.3     1  UNL1       -0.0258
     24 C           8.2352    0.8554    0.0000 C.3     1  UNL1       -0.0357
     25 C           3.4037   -3.2662    0.0000 C.3     1  UNL1        0.0590
     26 C          10.4749    1.7014    0.0000 C.3     1  UNL1       -0.0502
     27 C          10.7855    2.6520    0.0000 C.3     1  UNL1       -0.0506
     28 C          11.7640    2.8582    0.0000 C.3     1  UNL1       -0.0467
     29 C          12.0747    3.8087    0.0000 C.3     1  UNL1       -0.0627
     30 C          12.4319    2.1139    0.0000 C.3     1  UNL1       -0.0627
     31 H           8.0188   -2.5558    0.0000 H       1  UNL1        0.0310
     32 H           7.8022   -2.6298    0.0000 H       1  UNL1        0.0310
     33 H           6.9329   -1.2855    0.0000 H       1  UNL1        0.0312
     34 H           9.7148   -0.2739    0.0000 H       1  UNL1        0.0359
     35 H           7.4613    0.2644    0.0000 H       1  UNL1        0.0271
     36 H           6.6643    0.2644    0.0000 H       1  UNL1        0.0271
     37 H           8.6240   -2.5822    0.0000 H       1  UNL1        0.0293
     38 H           9.4124   -2.3245    0.0000 H       1  UNL1        0.0293
     39 H           9.7404   -1.7628    0.0000 H       1  UNL1        0.0597
     40 H           5.9847   -0.1279    0.0000 H       1  UNL1        0.0268
     41 H           5.5862   -0.8182    0.0000 H       1  UNL1        0.0268
     42 H           7.2969   -3.8324    0.0000 H       1  UNL1        0.0310
     43 H           7.6880   -3.1366    0.0000 H       1  UNL1        0.0310
     44 H           8.5488    0.2895    0.0000 H       1  UNL1        0.0235
     45 H           7.9288    0.9095    0.0000 H       1  UNL1        0.0235
     46 H           7.3088    0.2895    0.0000 H       1  UNL1        0.0235
     47 H           4.7681   -1.1866    0.0000 H       1  UNL1        0.0274
     48 H           3.9700   -1.1713    0.0000 H       1  UNL1        0.0274
     49 H           6.1832   -4.3998    0.0000 H       1  UNL1        0.0572
     50 H           5.9145   -1.2222    0.0000 H       1  UNL1        0.0238
     51 H           5.2993   -0.5974    0.0000 H       1  UNL1        0.0238
     52 H           4.6745   -1.2126    0.0000 H       1  UNL1        0.0238
     53 H           3.9460   -4.2847    0.0000 H       1  UNL1        0.0335
     54 H           4.7443   -4.2816    0.0000 H       1  UNL1        0.0335
     55 H           9.4758    2.1149    0.0000 H       1  UNL1        0.0293
     56 H           8.8826    1.5826    0.0000 H       1  UNL1        0.0293
     57 H           3.2075   -1.5960    0.0000 H       1  UNL1        0.0290
     58 H           2.8004   -2.2826    0.0000 H       1  UNL1        0.0290
     59 H           8.4278    1.4447    0.0000 H       1  UNL1        0.0257
     60 H           7.6459    1.0480    0.0000 H       1  UNL1        0.0257
     61 H           8.0426    0.2661    0.0000 H       1  UNL1        0.0257
     62 H           3.4025   -3.8862    0.0000 H       1  UNL1        0.0596
     63 H          10.7687   -1.7475    0.0000 H       1  UNL1        0.2098
     64 H          10.5977    0.6481    0.0000 H       1  UNL1        0.2102
     65 H          10.4954    1.0818    0.0000 H       1  UNL1        0.0266
     66 H          11.0887    1.6141    0.0000 H       1  UNL1        0.0266
     67 H          10.7650    3.2716    0.0000 H       1  UNL1        0.0268
     68 H          10.1717    2.7393    0.0000 H       1  UNL1        0.0268
     69 H           2.0000   -3.4508    0.0000 H       1  UNL1        0.2098
     70 H          12.3707    2.9860    0.0000 H       1  UNL1        0.0295
     71 H          11.9704    1.6998    0.0000 H       1  UNL1        0.0232
     72 H          12.8459    1.6524    0.0000 H       1  UNL1        0.0232
     73 H          12.8934    2.5280    0.0000 H       1  UNL1        0.0232
     74 H          12.6640    3.6161    0.0000 H       1  UNL1        0.0232
     75 H          12.2673    4.3980    0.0000 H       1  UNL1        0.0232
     76 H          11.4854    4.0013    0.0000 H       1  UNL1        0.0232
@<TRIPOS>BOND
     1    12     1    1
     2     1    63    1
     3     2    15    1
     4     2    64    1
     5    25     3    1
     6     3    69    1
     7     4     5    1
     8     4     8    1
     9     4     9    1
    10     4    16    1
    11     5     6    1
    12     5    10    1
    13     5    31    1
    14     6     7    1
    15     6    14    1
    16     6    32    1
    17     7    11    1
    18     7    13    1
    19     7    33    1
    20     8    12    1
    21     8    15    1
    22     8    34    1
    23     9    13    1
    24     9    35    1
    25     9    36    1
    26    10    12    1
    27    10    37    1
    28    10    38    1
    29    11    17    1
    30    11    18    1
    31    11    20    1
    32    12    39    1
    33    13    40    1
    34    13    41    1
    35    14    19    1
    36    14    42    1
    37    14    43    1
    38    15    22    1
    39    15    24    1
    40    16    44    1
    41    16    45    1
    42    16    46    1
    43    17    19    2
    44    17    21    1
    45    18    23    1
    46    18    47    1
    47    18    48    1
    48    19    49    1
    49    20    50    1
    50    20    51    1
    51    20    52    1
    52    21    25    1
    53    21    53    1
    54    21    54    1
    55    22    26    1
    56    22    55    1
    57    22    56    1
    58    23    25    1
    59    23    57    1
    60    23    58    1
    61    24    59    1
    62    24    60    1
    63    24    61    1
    64    25    62    1
    65    26    27    1
    66    26    65    1
    67    26    66    1
    68    27    28    1
    69    27    67    1
    70    27    68    1
    71    28    29    1
    72    28    30    1
    73    28    70    1
    74    29    74    1
    75    29    75    1
    76    29    76    1
    77    30    71    1
    78    30    72    1
    79    30    73    1
