@<TRIPOS>MOLECULE
IMPHY011092
 127 137 0 0 0
SMALL
GASTEIGER

@<TRIPOS>ATOM
      1 O           8.9278   -0.4277    0.0000 O.3     1  UNL1       -0.4530
      2 O           8.5122   -1.2675    0.0000 O.3     1  UNL1       -0.4502
      3 O          10.8952    2.8317    0.0000 O.3     1  UNL1       -0.4808
      4 O           7.3710   -1.5561    0.0000 O.3     1  UNL1       -0.4501
      5 O           7.1554    1.1456    0.0000 O.3     1  UNL1       -0.4505
      6 O          11.5939    2.0932    0.0000 O.3     1  UNL1       -0.5030
      7 O          11.4296    5.4937    0.0000 O.3     1  UNL1       -0.3875
      8 O           7.8340    1.1510    0.0000 O.3     1  UNL1       -0.5062
      9 O          10.7775   -1.2726    0.0000 O.2     1  UNL1       -0.2449
     10 O           6.0038   -0.9534    0.0000 O.3     1  UNL1       -0.4573
     11 O           7.8741    4.6148    0.0000 O.3     1  UNL1       -0.5063
     12 O          13.3259   -0.9068    0.0000 O.3     1  UNL1       -0.5028
     13 O          13.3259    1.0932    0.0000 O.3     1  UNL1       -0.5009
     14 O           8.6967   -2.8884    0.0000 O.2     1  UNL1       -0.2449
     15 O          12.7865   -1.9596    0.0000 O.3     1  UNL1       -0.5028
     16 O           5.6985   -1.3372    0.0000 O.2     1  UNL1       -0.2449
     17 O          12.5889   -3.8919    0.0000 O.3     1  UNL1       -0.5009
     18 O          10.8266   -4.7086    0.0000 O.3     1  UNL1       -0.5032
     19 O           6.8533    2.8511    0.0000 O.2     1  UNL1       -0.2449
     20 O          14.4062    1.9454    0.0000 O.3     1  UNL1       -0.5033
     21 O           5.7701   -2.8465    0.0000 O.2     1  UNL1       -0.2449
     22 O          15.4328    3.6619    0.0000 O.3     1  UNL1       -0.5033
     23 O           6.1592   -5.4683    0.0000 O.3     1  UNL1       -0.5028
     24 O           9.3722   -3.9823    0.0000 O.3     1  UNL1       -0.5032
     25 O           5.1692   -5.3824    0.0000 O.3     1  UNL1       -0.5028
     26 O           8.1985   -5.6610    0.0000 O.3     1  UNL1       -0.5009
     27 O           3.1273   -5.2211    0.0000 O.3     1  UNL1       -0.5009
     28 O           2.2603   -3.3654    0.0000 O.3     1  UNL1       -0.5032
     29 O           3.8600   -0.3175    0.0000 O.3     1  UNL1       -0.5032
     30 O           3.2559    3.0935    0.0000 O.3     1  UNL1       -0.5032
     31 O           2.5733    1.2136    0.0000 O.3     1  UNL1       -0.5009
     32 C           9.8339    1.1278    0.0000 C.3     1  UNL1        0.0612
     33 C           8.9278    0.6140    0.0000 C.3     1  UNL1        0.1548
     34 C           8.4109   -0.2585    0.0000 C.3     1  UNL1        0.1811
     35 C          10.7278    0.5932    0.0000 C.ar    1  UNL1        0.0237
     36 C           9.3439    1.9996    0.0000 C.ar    1  UNL1        0.0473
     37 C           7.4574   -0.5599    0.0000 C.3     1  UNL1        0.1834
     38 C          10.7278   -0.4068    0.0000 C.ar    1  UNL1        0.0779
     39 C           9.8539    2.8598    0.0000 C.ar    1  UNL1        0.1356
     40 C           6.8141    0.2057    0.0000 C.3     1  UNL1        0.1774
     41 C           9.3640    3.7315    0.0000 C.ar    1  UNL1        0.0387
     42 C           9.8339   -0.9415    0.0000 C.2     1  UNL1        0.3407
     43 C          11.5939   -0.9068    0.0000 C.ar    1  UNL1        0.0461
     44 C           9.8813    4.6356    0.0000 C.3     1  UNL1        0.0092
     45 C          11.5939    1.0932    0.0000 C.ar    1  UNL1        0.1668
     46 C          10.9229    4.6316    0.0000 C.3     1  UNL1        0.1004
     47 C           8.3440    2.0111    0.0000 C.ar    1  UNL1        0.1277
     48 C          11.4333    3.7235    0.0000 C.3     1  UNL1        0.1513
     49 C           8.3640    3.7431    0.0000 C.ar    1  UNL1        0.1271
     50 C          11.1060   -1.7958    0.0000 C.ar    1  UNL1        0.0458
     51 C          12.4599   -0.4068    0.0000 C.ar    1  UNL1        0.1708
     52 C          12.4599    0.5932    0.0000 C.ar    1  UNL1        0.2015
     53 C           5.8294    0.0313    0.0000 C.3     1  UNL1        0.1333
     54 C           7.8541    2.8829    0.0000 C.ar    1  UNL1        0.0221
     55 C           9.1922   -2.0198    0.0000 C.2     1  UNL1        0.3405
     56 C          10.1859   -2.2222    0.0000 C.ar    1  UNL1        0.0740
     57 C          12.4332    3.7081    0.0000 C.ar    1  UNL1       -0.0012
     58 C          11.8716   -2.3633    0.0000 C.ar    1  UNL1        0.1708
     59 C           6.4650   -1.9794    0.0000 C.2     1  UNL1        0.3405
     60 C          10.1239   -3.1732    0.0000 C.ar    1  UNL1       -0.0017
     61 C          12.9197    2.8345    0.0000 C.ar    1  UNL1       -0.0098
     62 C          12.9465    4.5663    0.0000 C.ar    1  UNL1       -0.0513
     63 C          11.7746   -3.3114    0.0000 C.ar    1  UNL1        0.2012
     64 C          10.9100   -3.7121    0.0000 C.ar    1  UNL1        0.1628
     65 C           6.5120    1.9112    0.0000 C.2     1  UNL1        0.3399
     66 C           6.8883   -2.8854    0.0000 C.ar    1  UNL1        0.0740
     67 C           6.3153   -3.7050    0.0000 C.ar    1  UNL1        0.0458
     68 C           5.4688   -1.8930    0.0000 C.2     1  UNL1        0.3401
     69 C          13.9196    2.8191    0.0000 C.ar    1  UNL1        0.1586
     70 C          13.9463    4.5509    0.0000 C.ar    1  UNL1       -0.0162
     71 C           5.3190   -3.6186    0.0000 C.ar    1  UNL1        0.0458
     72 C           4.8957   -2.7125    0.0000 C.ar    1  UNL1        0.0740
     73 C          14.4329    3.6773    0.0000 C.ar    1  UNL1        0.1582
     74 C           5.5273    1.7368    0.0000 C.ar    1  UNL1        0.0661
     75 C           7.9273   -2.9594    0.0000 C.ar    1  UNL1       -0.0017
     76 C           6.7417   -4.6554    0.0000 C.ar    1  UNL1        0.1708
     77 C           8.3755   -3.8997    0.0000 C.ar    1  UNL1        0.1628
     78 C           4.7355   -4.4814    0.0000 C.ar    1  UNL1        0.1708
     79 C           3.8596   -2.6066    0.0000 C.ar    1  UNL1       -0.0017
     80 C           7.7787   -4.7534    0.0000 C.ar    1  UNL1        0.2012
     81 C           4.8840    2.5024    0.0000 C.ar    1  UNL1       -0.0023
     82 C           5.1860    0.7968    0.0000 C.ar    1  UNL1       -0.0023
     83 C           3.6971   -4.3994    0.0000 C.ar    1  UNL1        0.2012
     84 C           3.2561   -3.4556    0.0000 C.ar    1  UNL1        0.1628
     85 C           4.2014    0.6225    0.0000 C.ar    1  UNL1        0.1628
     86 C           3.8993    2.3280    0.0000 C.ar    1  UNL1        0.1628
     87 C           3.5580    1.3880    0.0000 C.ar    1  UNL1        0.2006
     88 H          10.2674    1.8590    0.0000 H       1  UNL1        0.0438
     89 H           8.7156    1.4371    0.0000 H       1  UNL1        0.0782
     90 H           8.0254    0.2271    0.0000 H       1  UNL1        0.0811
     91 H           8.1207   -1.0914    0.0000 H       1  UNL1        0.0812
     92 H           6.4152    0.6803    0.0000 H       1  UNL1        0.0808
     93 H           9.9898    5.2460    0.0000 H       1  UNL1        0.0342
     94 H           9.2984    4.8469    0.0000 H       1  UNL1        0.0342
     95 H          10.6160    5.1703    0.0000 H       1  UNL1        0.0637
     96 H          11.7505    4.2562    0.0000 H       1  UNL1        0.0811
     97 H           5.7213    0.6418    0.0000 H       1  UNL1        0.0736
     98 H           5.2189   -0.0768    0.0000 H       1  UNL1        0.0736
     99 H           7.2341    2.8901    0.0000 H       1  UNL1        0.0691
    100 H          12.1308    2.4032    0.0000 H       1  UNL1        0.2923
    101 H          11.1237    6.0330    0.0000 H       1  UNL1        0.2100
    102 H           8.1378    0.6105    0.0000 H       1  UNL1        0.2921
    103 H           9.5663   -3.4442    0.0000 H       1  UNL1        0.0664
    104 H          12.6015    2.3024    0.0000 H       1  UNL1        0.0659
    105 H          12.6448    5.1080    0.0000 H       1  UNL1        0.0623
    106 H           7.2541    4.6220    0.0000 H       1  UNL1        0.2921
    107 H          13.8629   -0.5968    0.0000 H       1  UNL1        0.2923
    108 H          13.8629    0.7832    0.0000 H       1  UNL1        0.2924
    109 H          14.2646    5.0830    0.0000 H       1  UNL1        0.0655
    110 H          13.2869   -2.3258    0.0000 H       1  UNL1        0.2923
    111 H           8.2767   -2.4472    0.0000 H       1  UNL1        0.0664
    112 H          12.5296   -4.5091    0.0000 H       1  UNL1        0.2924
    113 H          10.2656   -4.9727    0.0000 H       1  UNL1        0.2923
    114 H           3.6036   -2.0419    0.0000 H       1  UNL1        0.0664
    115 H           5.0956    3.0851    0.0000 H       1  UNL1        0.0663
    116 H           5.5849    0.3222    0.0000 H       1  UNL1        0.0663
    117 H          15.0261    1.9359    0.0000 H       1  UNL1        0.2923
    118 H          15.7510    4.1940    0.0000 H       1  UNL1        0.2923
    119 H           6.4152   -6.0330    0.0000 H       1  UNL1        0.2923
    120 H           9.6368   -4.5430    0.0000 H       1  UNL1        0.2923
    121 H           4.8199   -5.8946    0.0000 H       1  UNL1        0.2923
    122 H           8.8160   -5.7170    0.0000 H       1  UNL1        0.2924
    123 H           2.5094   -5.1699    0.0000 H       1  UNL1        0.2924
    124 H           2.0000   -2.8027    0.0000 H       1  UNL1        0.2923
    125 H           3.2495   -0.4256    0.0000 H       1  UNL1        0.2923
    126 H           2.6454    2.9854    0.0000 H       1  UNL1        0.2923
    127 H           2.1744    1.6883    0.0000 H       1  UNL1        0.2924
@<TRIPOS>BOND
     1     1    33    1
     2     1    42    1
     3     2    34    1
     4     2    55    1
     5     3    39    1
     6     3    48    1
     7     4    37    1
     8     4    59    1
     9    40     5    1
    10     5    65    1
    11     6    45    1
    12     6   100    1
    13     7    46    1
    14     7   101    1
    15     8    47    1
    16     8   102    1
    17     9    42    2
    18    10    53    1
    19    10    68    1
    20    11    49    1
    21    11   106    1
    22    12    51    1
    23    12   107    1
    24    13    52    1
    25    13   108    1
    26    14    55    2
    27    15    58    1
    28    15   110    1
    29    16    59    2
    30    17    63    1
    31    17   112    1
    32    18    64    1
    33    18   113    1
    34    19    65    2
    35    20    69    1
    36    20   117    1
    37    21    68    2
    38    22    73    1
    39    22   118    1
    40    23    76    1
    41    23   119    1
    42    24    77    1
    43    24   120    1
    44    25    78    1
    45    25   121    1
    46    26    80    1
    47    26   122    1
    48    27    83    1
    49    27   123    1
    50    28    84    1
    51    28   124    1
    52    29    85    1
    53    29   125    1
    54    30    86    1
    55    30   126    1
    56    31    87    1
    57    31   127    1
    58    32    33    1
    59    32    35    1
    60    32    36    1
    61    32    88    1
    62    33    34    1
    63    33    89    1
    64    34    37    1
    65    34    90    1
    66    35    38   ar
    67    35    45   ar
    68    36    39   ar
    69    36    47   ar
    70    37    40    1
    71    37    91    1
    72    38    42    1
    73    38    43   ar
    74    39    41   ar
    75    40    53    1
    76    40    92    1
    77    41    44    1
    78    41    49   ar
    79    43    50    1
    80    43    51   ar
    81    44    46    1
    82    44    93    1
    83    44    94    1
    84    45    52   ar
    85    46    48    1
    86    46    95    1
    87    47    54   ar
    88    48    57    1
    89    48    96    1
    90    49    54   ar
    91    50    56   ar
    92    50    58   ar
    93    51    52   ar
    94    53    97    1
    95    53    98    1
    96    54    99    1
    97    55    56    1
    98    56    60   ar
    99    57    61   ar
   100    57    62   ar
   101    58    63   ar
   102    59    66    1
   103    60    64   ar
   104    60   103    1
   105    61    69   ar
   106    61   104    1
   107    62    70   ar
   108    62   105    1
   109    63    64   ar
   110    65    74    1
   111    66    67   ar
   112    66    75   ar
   113    67    71    1
   114    67    76   ar
   115    68    72    1
   116    69    73   ar
   117    70    73   ar
   118    70   109    1
   119    71    72   ar
   120    71    78   ar
   121    72    79   ar
   122    74    81   ar
   123    74    82   ar
   124    75    77   ar
   125    75   111    1
   126    76    80   ar
   127    77    80   ar
   128    78    83   ar
   129    79    84   ar
   130    79   114    1
   131    81    86   ar
   132    81   115    1
   133    82    85   ar
   134    82   116    1
   135    83    84   ar
   136    85    87   ar
   137    86    87   ar
