@<TRIPOS>MOLECULE
IMPHY007348
 29 31 0 0 0
SMALL
GASTEIGER

@<TRIPOS>ATOM
      1 O           6.4144    2.0346    0.0000 O.3     1  UNL1       -0.5058
      2 O           6.4144   -2.0346    0.0000 O.3     1  UNL1       -0.5060
      3 O           4.6660    2.0000    0.0000 O.2     1  UNL1       -0.2865
      4 O           4.6660   -2.0000    0.0000 O.2     1  UNL1       -0.2865
      5 C           5.5321    0.5000    0.0000 C.ar    1  UNL1        0.0782
      6 C           5.5321   -0.5000    0.0000 C.ar    1  UNL1        0.0779
      7 C           3.8000    0.5000    0.0000 C.ar    1  UNL1        0.0332
      8 C           3.8000   -0.5000    0.0000 C.ar    1  UNL1        0.0332
      9 C           4.6660    1.0000    0.0000 C.2     1  UNL1        0.1981
     10 C           4.6660   -1.0000    0.0000 C.2     1  UNL1        0.1981
     11 C           6.4260    1.0347    0.0000 C.ar    1  UNL1        0.1315
     12 C           7.3321    0.5208    0.0000 C.ar    1  UNL1       -0.0048
     13 C           6.4260   -1.0347    0.0000 C.ar    1  UNL1        0.1288
     14 C           7.3321   -0.5208    0.0000 C.ar    1  UNL1       -0.0131
     15 C           2.9061    1.0347    0.0000 C.ar    1  UNL1       -0.0502
     16 C           2.9061   -1.0347    0.0000 C.ar    1  UNL1       -0.0502
     17 C           8.1962    1.0241    0.0000 C.3     1  UNL1       -0.0361
     18 C           2.0000    0.5208    0.0000 C.ar    1  UNL1       -0.0610
     19 C           2.0000   -0.5208    0.0000 C.ar    1  UNL1       -0.0610
     20 H           7.8678   -0.8329    0.0000 H       1  UNL1        0.0658
     21 H           2.9132    1.6546    0.0000 H       1  UNL1        0.0625
     22 H           2.9132   -1.6546    0.0000 H       1  UNL1        0.0625
     23 H           8.5082    0.4884    0.0000 H       1  UNL1        0.0279
     24 H           8.7319    1.3362    0.0000 H       1  UNL1        0.0279
     25 H           7.8841    1.5599    0.0000 H       1  UNL1        0.0279
     26 H           1.4643    0.8329    0.0000 H       1  UNL1        0.0618
     27 H           1.4643   -0.8329    0.0000 H       1  UNL1        0.0618
     28 H           6.9478    2.3508    0.0000 H       1  UNL1        0.2922
     29 H           6.9478   -2.3508    0.0000 H       1  UNL1        0.2922
@<TRIPOS>BOND
     1     1    11    1
     2     1    28    1
     3     2    13    1
     4     2    29    1
     5     3     9    2
     6     4    10    2
     7     5     6   ar
     8     5     9    1
     9     5    11   ar
    10     6    10    1
    11     6    13   ar
    12     7     8   ar
    13     7     9    1
    14     7    15   ar
    15     8    10    1
    16     8    16   ar
    17    11    12   ar
    18    12    14   ar
    19    12    17    1
    20    13    14   ar
    21    14    20    1
    22    15    18   ar
    23    15    21    1
    24    16    19   ar
    25    16    22    1
    26    17    23    1
    27    17    24    1
    28    17    25    1
    29    18    19   ar
    30    18    26    1
    31    19    27    1
