@<TRIPOS>MOLECULE
IMPHY005095
 55 57 0 0 0
SMALL
GASTEIGER

@<TRIPOS>ATOM
      1 S           6.8671    1.2500    0.0000 S.O2    1  UNL1        0.1125
      2 O           4.2690    2.7500    0.0000 O.3     1  UNL1       -0.3430
      3 O           4.2690   -0.2500    0.0000 O.3     1  UNL1       -0.3665
      4 O           6.0010    0.7500    0.0000 O.3     1  UNL1       -0.2232
      5 O           2.5369    0.7500    0.0000 O.3     1  UNL1       -0.3866
      6 O           6.0010    2.7500    0.0000 O.3     1  UNL1       -0.3519
      7 O           7.3671    0.3840    0.0000 O.2     1  UNL1       -0.1419
      8 O           6.3671    2.1160    0.0000 O.2     1  UNL1       -0.1419
      9 C           4.2690    0.7500    0.0000 C.3     1  UNL1        0.1204
     10 C           5.1350    1.2500    0.0000 C.3     1  UNL1        0.1667
     11 C           3.4030    1.2500    0.0000 C.3     1  UNL1        0.1098
     12 C           3.4030    2.2500    0.0000 C.3     1  UNL1        0.0873
     13 C           5.1350    2.2500    0.0000 C.3     1  UNL1        0.1901
     14 C           2.5369    2.7500    0.0000 C.3     1  UNL1       -0.0361
     15 C           3.4030   -0.7500    0.0000 C.3     1  UNL1        0.0733
     16 C           7.7331    1.7500    0.0000 C.ar    1  UNL1        0.1171
     17 C           6.0010    3.7500    0.0000 C.3     1  UNL1        0.0395
     18 C           3.4030   -1.7500    0.0000 C.ar    1  UNL1       -0.0219
     19 C           8.5991    1.2500    0.0000 C.ar    1  UNL1       -0.0341
     20 C           7.7331    2.7500    0.0000 C.ar    1  UNL1       -0.0341
     21 C           2.5369   -2.2500    0.0000 C.ar    1  UNL1       -0.0564
     22 C           4.2690   -2.2500    0.0000 C.ar    1  UNL1       -0.0564
     23 C           9.4651    1.7500    0.0000 C.ar    1  UNL1       -0.0570
     24 C           8.5991    3.2500    0.0000 C.ar    1  UNL1       -0.0570
     25 C           9.4651    2.7500    0.0000 C.ar    1  UNL1       -0.0503
     26 C           2.5369   -3.2500    0.0000 C.ar    1  UNL1       -0.0614
     27 C           4.2690   -3.2500    0.0000 C.ar    1  UNL1       -0.0614
     28 C           3.4030   -3.7500    0.0000 C.ar    1  UNL1       -0.0617
     29 C          10.3312    3.2500    0.0000 C.3     1  UNL1       -0.0397
     30 H           4.8059    0.4400    0.0000 H       1  UNL1        0.0651
     31 H           5.6720    1.5600    0.0000 H       1  UNL1        0.0699
     32 H           3.4030    0.6300    0.0000 H       1  UNL1        0.0646
     33 H           3.4030    2.8700    0.0000 H       1  UNL1        0.0621
     34 H           5.1350    2.8700    0.0000 H       1  UNL1        0.0938
     35 H           2.8469    3.2869    0.0000 H       1  UNL1        0.0255
     36 H           2.0000    3.0600    0.0000 H       1  UNL1        0.0255
     37 H           2.2269    2.2131    0.0000 H       1  UNL1        0.0255
     38 H           2.0000    1.0600    0.0000 H       1  UNL1        0.2100
     39 H           3.1909   -0.1674    0.0000 H       1  UNL1        0.0610
     40 H           2.7924   -0.8577    0.0000 H       1  UNL1        0.0610
     41 H           6.6210    3.7500    0.0000 H       1  UNL1        0.0525
     42 H           6.0010    4.3700    0.0000 H       1  UNL1        0.0525
     43 H           5.3810    3.7500    0.0000 H       1  UNL1        0.0525
     44 H           8.5991    0.6300    0.0000 H       1  UNL1        0.0637
     45 H           7.1962    3.0600    0.0000 H       1  UNL1        0.0637
     46 H           2.0000   -1.9400    0.0000 H       1  UNL1        0.0621
     47 H           4.8059   -1.9400    0.0000 H       1  UNL1        0.0621
     48 H          10.0021    1.4400    0.0000 H       1  UNL1        0.0621
     49 H           8.5991    3.8700    0.0000 H       1  UNL1        0.0621
     50 H           2.0000   -3.5600    0.0000 H       1  UNL1        0.0618
     51 H           4.8059   -3.5600    0.0000 H       1  UNL1        0.0618
     52 H           3.4030   -4.3700    0.0000 H       1  UNL1        0.0618
     53 H          10.6412    2.7131    0.0000 H       1  UNL1        0.0278
     54 H          10.8681    3.5600    0.0000 H       1  UNL1        0.0278
     55 H          10.0212    3.7869    0.0000 H       1  UNL1        0.0278
@<TRIPOS>BOND
     1     1     4    1
     2     1     7    2
     3     1     8    2
     4     1    16    1
     5     2    12    1
     6     2    13    1
     7     9     3    1
     8     3    15    1
     9    10     4    1
    10    11     5    1
    11     5    38    1
    12    13     6    1
    13     6    17    1
    14     9    10    1
    15     9    11    1
    16     9    30    1
    17    10    13    1
    18    10    31    1
    19    11    12    1
    20    11    32    1
    21    12    14    1
    22    12    33    1
    23    13    34    1
    24    14    35    1
    25    14    36    1
    26    14    37    1
    27    15    18    1
    28    15    39    1
    29    15    40    1
    30    16    19   ar
    31    16    20   ar
    32    17    41    1
    33    17    42    1
    34    17    43    1
    35    18    21   ar
    36    18    22   ar
    37    19    23   ar
    38    19    44    1
    39    20    24   ar
    40    20    45    1
    41    21    26   ar
    42    21    46    1
    43    22    27   ar
    44    22    47    1
    45    23    25   ar
    46    23    48    1
    47    24    25   ar
    48    24    49    1
    49    25    29    1
    50    26    28   ar
    51    26    50    1
    52    27    28   ar
    53    27    51    1
    54    28    52    1
    55    29    53    1
    56    29    54    1
    57    29    55    1
