@<TRIPOS>MOLECULE
IMPHY007101
 58 60 0 0 0
SMALL
GASTEIGER

@<TRIPOS>ATOM
      1 O           7.2241    1.3103    0.0000 O.3     1  UNL1       -0.4826
      2 O           7.2125    4.3796    0.0000 O.2     1  UNL1       -0.2917
      3 O           5.4641    4.3450    0.0000 O.3     1  UNL1       -0.5058
      4 O           3.7320    1.3450    0.0000 O.3     1  UNL1       -0.5062
      5 O          11.5865   -0.1892    0.0000 O.3     1  UNL1       -0.5068
      6 C           8.1301    1.8242    0.0000 C.3     1  UNL1        0.1322
      7 C           8.1301    2.8658    0.0000 C.3     1  UNL1        0.0520
      8 C           6.3301    1.8450    0.0000 C.ar    1  UNL1        0.1423
      9 C           6.3301    2.8450    0.0000 C.ar    1  UNL1        0.1009
     10 C           5.4641    1.3450    0.0000 C.ar    1  UNL1        0.0403
     11 C           7.2241    3.3797    0.0000 C.2     1  UNL1        0.1740
     12 C           8.9942    1.3208    0.0000 C.ar    1  UNL1       -0.0067
     13 C           5.4641    0.3450    0.0000 C.3     1  UNL1       -0.0023
     14 C           5.4641    3.3450    0.0000 C.ar    1  UNL1        0.1343
     15 C           4.5981    1.8450    0.0000 C.ar    1  UNL1        0.1273
     16 C           4.5981    2.8450    0.0000 C.ar    1  UNL1        0.0225
     17 C           4.5981   -0.1550    0.0000 C.2     1  UNL1       -0.0805
     18 C           4.5981   -1.1550    0.0000 C.2     1  UNL1       -0.0759
     19 C           8.9904    0.3209    0.0000 C.ar    1  UNL1       -0.0516
     20 C           9.8622    1.8175    0.0000 C.ar    1  UNL1       -0.0516
     21 C           3.7320   -1.6550    0.0000 C.3     1  UNL1       -0.0286
     22 C           3.7320   -2.6550    0.0000 C.3     1  UNL1       -0.0308
     23 C           9.8545   -0.1825    0.0000 C.ar    1  UNL1       -0.0198
     24 C          10.7263    1.3142    0.0000 C.ar    1  UNL1       -0.0198
     25 C           5.4641   -1.6550    0.0000 C.3     1  UNL1       -0.0438
     26 C          10.7224    0.3142    0.0000 C.ar    1  UNL1        0.1169
     27 C           2.8660   -3.1550    0.0000 C.2     1  UNL1       -0.0850
     28 C           2.8660   -4.1550    0.0000 C.2     1  UNL1       -0.0796
     29 C           2.0000   -4.6550    0.0000 C.3     1  UNL1       -0.0440
     30 C           3.7320   -4.6550    0.0000 C.3     1  UNL1       -0.0440
     31 H           8.6677    2.1332    0.0000 H       1  UNL1        0.0789
     32 H           8.7410    2.7597    0.0000 H       1  UNL1        0.0385
     33 H           8.3392    3.4495    0.0000 H       1  UNL1        0.0385
     34 H           5.6762   -0.2376    0.0000 H       1  UNL1        0.0358
     35 H           6.0747    0.4527    0.0000 H       1  UNL1        0.0358
     36 H           4.0611    3.1550    0.0000 H       1  UNL1        0.0691
     37 H           4.0611    0.1550    0.0000 H       1  UNL1        0.0575
     38 H           8.4522    0.0129    0.0000 H       1  UNL1        0.0623
     39 H           9.8646    2.4375    0.0000 H       1  UNL1        0.0623
     40 H           3.5200   -1.0724    0.0000 H       1  UNL1        0.0313
     41 H           3.1215   -1.7627    0.0000 H       1  UNL1        0.0313
     42 H           3.9441   -3.2376    0.0000 H       1  UNL1        0.0310
     43 H           4.3426   -2.5473    0.0000 H       1  UNL1        0.0310
     44 H           9.8521   -0.8025    0.0000 H       1  UNL1        0.0654
     45 H          11.2644    1.6221    0.0000 H       1  UNL1        0.0654
     46 H           5.1541   -2.1919    0.0000 H       1  UNL1        0.0274
     47 H           6.0010   -1.9650    0.0000 H       1  UNL1        0.0274
     48 H           5.7741   -1.1181    0.0000 H       1  UNL1        0.0274
     49 H           4.9272    4.6550    0.0000 H       1  UNL1        0.2922
     50 H           3.1951    1.6550    0.0000 H       1  UNL1        0.2921
     51 H           2.3291   -2.8450    0.0000 H       1  UNL1        0.0572
     52 H           1.6900   -4.1181    0.0000 H       1  UNL1        0.0274
     53 H           1.4631   -4.9650    0.0000 H       1  UNL1        0.0274
     54 H           2.3100   -5.1919    0.0000 H       1  UNL1        0.0274
     55 H           3.4220   -5.1919    0.0000 H       1  UNL1        0.0274
     56 H           4.2690   -4.9650    0.0000 H       1  UNL1        0.0274
     57 H           4.0420   -4.1181    0.0000 H       1  UNL1        0.0274
     58 H          12.1246    0.1188    0.0000 H       1  UNL1        0.2921
@<TRIPOS>BOND
     1     1     6    1
     2     1     8    1
     3     2    11    2
     4     3    14    1
     5     3    49    1
     6     4    15    1
     7     4    50    1
     8     5    26    1
     9     5    58    1
    10     6     7    1
    11     6    12    1
    12     6    31    1
    13     7    11    1
    14     7    32    1
    15     7    33    1
    16     8     9   ar
    17     8    10   ar
    18     9    11    1
    19     9    14   ar
    20    10    13    1
    21    10    15   ar
    22    12    19   ar
    23    12    20   ar
    24    13    17    1
    25    13    34    1
    26    13    35    1
    27    14    16   ar
    28    15    16   ar
    29    16    36    1
    30    17    18    2
    31    17    37    1
    32    18    21    1
    33    18    25    1
    34    19    23   ar
    35    19    38    1
    36    20    24   ar
    37    20    39    1
    38    21    22    1
    39    21    40    1
    40    21    41    1
    41    22    27    1
    42    22    42    1
    43    22    43    1
    44    23    26   ar
    45    23    44    1
    46    24    26   ar
    47    24    45    1
    48    25    46    1
    49    25    47    1
    50    25    48    1
    51    27    28    2
    52    27    51    1
    53    28    29    1
    54    28    30    1
    55    29    52    1
    56    29    53    1
    57    29    54    1
    58    30    55    1
    59    30    56    1
    60    30    57    1
