@<TRIPOS>MOLECULE
IMPHY009631
 48 50 0 0 0
SMALL
GASTEIGER

@<TRIPOS>ATOM
      1 O           4.8158    0.5238    0.0000 O.3     1  UNL1       -0.3636
      2 O           7.3548    1.4721    0.0000 O.3     1  UNL1       -0.4619
      3 O           7.8031    3.1451    0.0000 O.2     1  UNL1       -0.2512
      4 C           4.5725   -2.1564    0.0000 C.3     1  UNL1       -0.0090
      5 C           3.7435   -1.5972    0.0000 C.3     1  UNL1       -0.0327
      6 C           5.7936   -1.2908    0.0000 C.3     1  UNL1        0.0707
      7 C           6.0524   -0.3248    0.0000 C.3     1  UNL1       -0.0085
      8 C           4.0191   -0.6360    0.0000 C.3     1  UNL1       -0.0441
      9 C           2.9617   -2.2113    0.0000 C.3     1  UNL1       -0.0407
     10 C           5.6818    1.0238    0.0000 C.3     1  UNL1        0.1041
     11 C           4.2960   -3.1113    0.0000 C.3     1  UNL1       -0.0471
     12 C           7.1925   -1.7996    0.0000 C.3     1  UNL1       -0.0234
     13 C           7.4513   -0.8337    0.0000 C.3     1  UNL1       -0.0449
     14 C           3.3025   -3.1451    0.0000 C.3     1  UNL1       -0.0498
     15 C           5.5347   -2.2567    0.0000 C.3     1  UNL1       -0.0355
     16 C           2.0000   -1.9373    0.0000 C.3     1  UNL1       -0.0622
     17 C           6.3889    1.7309    0.0000 C.3     1  UNL1        0.1213
     18 C           5.4230    1.9897    0.0000 C.3     1  UNL1       -0.0323
     19 C           8.0619    2.1792    0.0000 C.2     1  UNL1        0.3040
     20 C           9.0279    1.9204    0.0000 C.3     1  UNL1        0.0332
     21 H           5.0779   -2.5156    0.0000 H       1  UNL1        0.0331
     22 H           3.2290   -1.2512    0.0000 H       1  UNL1        0.0307
     23 H           5.9914   -0.9418    0.0000 H       1  UNL1        0.0330
     24 H           4.0141   -0.0160    0.0000 H       1  UNL1        0.0272
     25 H           3.4048   -0.5522    0.0000 H       1  UNL1        0.0272
     26 H           2.8421   -1.6029    0.0000 H       1  UNL1        0.0301
     27 H           4.2519   -3.7297    0.0000 H       1  UNL1        0.0269
     28 H           4.9064   -3.2202    0.0000 H       1  UNL1        0.0269
     29 H           6.9976   -2.3882    0.0000 H       1  UNL1        0.0293
     30 H           7.7865   -1.9774    0.0000 H       1  UNL1        0.0293
     31 H           8.0453   -1.0114    0.0000 H       1  UNL1        0.0270
     32 H           7.6462   -0.2451    0.0000 H       1  UNL1        0.0270
     33 H           2.7010   -3.2953    0.0000 H       1  UNL1        0.0268
     34 H           3.3886   -3.7591    0.0000 H       1  UNL1        0.0268
     35 H           4.9359   -2.0962    0.0000 H       1  UNL1        0.0257
     36 H           5.3743   -2.8556    0.0000 H       1  UNL1        0.0257
     37 H           6.1336   -2.4172    0.0000 H       1  UNL1        0.0257
     38 H           2.1699   -1.3410    0.0000 H       1  UNL1        0.0233
     39 H           1.4037   -1.7674    0.0000 H       1  UNL1        0.0233
     40 H           1.8301   -2.5336    0.0000 H       1  UNL1        0.0233
     41 H           6.6509    2.2928    0.0000 H       1  UNL1        0.0727
     42 H           5.8810    2.0865    0.0000 H       1  UNL1        0.0727
     43 H           6.0218    2.1502    0.0000 H       1  UNL1        0.0258
     44 H           5.2625    2.5886    0.0000 H       1  UNL1        0.0258
     45 H           4.8241    1.8293    0.0000 H       1  UNL1        0.0258
     46 H           8.8674    1.3215    0.0000 H       1  UNL1        0.0342
     47 H           9.6267    1.7599    0.0000 H       1  UNL1        0.0342
     48 H           9.1883    2.5192    0.0000 H       1  UNL1        0.0342
@<TRIPOS>BOND
     1     1     6    1
     2     1    10    1
     3     2    17    1
     4     2    19    1
     5     3    19    2
     6     4     5    1
     7     4     6    1
     8     4    11    1
     9     4    21    1
    10     5     8    1
    11     5     9    1
    12     5    22    1
    13     6    12    1
    14     6    15    1
    15     7     8    1
    16     7    10    1
    17     7    13    1
    18     7    23    1
    19     8    24    1
    20     8    25    1
    21     9    14    1
    22     9    16    1
    23     9    26    1
    24    10    17    1
    25    10    18    1
    26    11    14    1
    27    11    27    1
    28    11    28    1
    29    12    13    1
    30    12    29    1
    31    12    30    1
    32    13    31    1
    33    13    32    1
    34    14    33    1
    35    14    34    1
    36    15    35    1
    37    15    36    1
    38    15    37    1
    39    16    38    1
    40    16    39    1
    41    16    40    1
    42    17    41    1
    43    17    42    1
    44    18    43    1
    45    18    44    1
    46    18    45    1
    47    19    20    1
    48    20    46    1
    49    20    47    1
    50    20    48    1
