@<TRIPOS>MOLECULE
IMPHY012531
 87 93 0 0 0
SMALL
GASTEIGER

@<TRIPOS>ATOM
      1 O           4.3016    2.2462    0.0000 O.3     1  UNL1       -0.3672
      2 O           7.7662    2.2596    0.0000 O.3     1  UNL1       -0.3876
      3 O           6.0010   -2.9440    0.0000 O.3     1  UNL1       -0.3445
      4 O           4.3961   -0.3748    0.0000 O.2     1  UNL1       -0.3004
      5 O           4.9038    6.4440    0.0000 O.3     1  UNL1       -0.4571
      6 O           4.2690   -2.9440    0.0000 O.3     1  UNL1       -0.3421
      7 O           3.1835    5.9791    0.0000 O.2     1  UNL1       -0.2456
      8 O           6.0010   -4.9440    0.0000 O.3     1  UNL1       -0.4537
      9 O           4.2690   -5.9440    0.0000 O.3     1  UNL1       -0.3733
     10 O           2.5369   -4.9440    0.0000 O.3     1  UNL1       -0.3865
     11 O           5.1350   -6.4440    0.0000 O.2     1  UNL1       -0.2512
     12 C           6.0303    3.2529    0.0000 C.3     1  UNL1        0.0322
     13 C           6.0380    1.2529    0.0000 C.3     1  UNL1        0.0055
     14 C           6.8982    2.7562    0.0000 C.3     1  UNL1        0.0776
     15 C           5.1662    2.7496    0.0000 C.3     1  UNL1        0.0940
     16 C           6.9021    1.7562    0.0000 C.3     1  UNL1       -0.0053
     17 C           5.1701    1.7496    0.0000 C.3     1  UNL1        0.0899
     18 C           6.0260    0.2113    0.0000 C.3     1  UNL1        0.0345
     19 C           6.2358    4.2255    0.0000 C.3     1  UNL1       -0.0057
     20 C           7.6327    3.4262    0.0000 C.3     1  UNL1       -0.0225
     21 C           6.9260   -0.3129    0.0000 C.3     1  UNL1       -0.0263
     22 C           7.8140    1.2529    0.0000 C.3     1  UNL1       -0.0469
     23 C           7.2241    4.3324    0.0000 C.3     1  UNL1       -0.0431
     24 C           7.8261    0.2113    0.0000 C.3     1  UNL1       -0.0489
     25 C           5.1624    3.7496    0.0000 C.3     1  UNL1       -0.0539
     26 C           5.0761   -0.3129    0.0000 C.3     1  UNL1       -0.0380
     27 C           6.9386   -1.3979    0.0000 C.3     1  UNL1       -0.0228
     28 C           5.5650    4.9672    0.0000 C.2     1  UNL1       -0.0221
     29 C           5.0418    0.3888    0.0000 C.2     1  UNL1        0.1270
     30 C           5.0635   -1.3979    0.0000 C.3     1  UNL1       -0.0256
     31 C           6.0010   -1.9440    0.0000 C.3     1  UNL1        0.0621
     32 C           5.7709    5.9458    0.0000 C.3     1  UNL1        0.1147
     33 C           4.5708    4.8606    0.0000 C.2     1  UNL1        0.0252
     34 C           4.1621    5.7733    0.0000 C.2     1  UNL1        0.3323
     35 C           5.1350   -3.4440    0.0000 C.3     1  UNL1        0.1994
     36 C           5.1350   -4.4440    0.0000 C.3     1  UNL1        0.1818
     37 C           4.2690   -4.9440    0.0000 C.3     1  UNL1        0.1281
     38 C           3.4030   -3.4440    0.0000 C.3     1  UNL1        0.0874
     39 C           3.4030   -4.4440    0.0000 C.3     1  UNL1        0.1108
     40 C           2.5369   -2.9440    0.0000 C.3     1  UNL1       -0.0361
     41 C           6.0010   -5.9440    0.0000 C.2     1  UNL1        0.3044
     42 C           3.4030   -6.4440    0.0000 C.3     1  UNL1        0.0371
     43 C           6.8671   -6.4440    0.0000 C.3     1  UNL1        0.0332
     44 H           5.3002    0.8308    0.0000 H       1  UNL1        0.0340
     45 H           4.8542    3.2853    0.0000 H       1  UNL1        0.0629
     46 H           7.6333    2.1897    0.0000 H       1  UNL1        0.0332
     47 H           4.8622    1.2114    0.0000 H       1  UNL1        0.0625
     48 H           6.4565    4.8049    0.0000 H       1  UNL1        0.0354
     49 H           8.0000    2.9267    0.0000 H       1  UNL1        0.0293
     50 H           8.1680    3.7390    0.0000 H       1  UNL1        0.0293
     51 H           7.6654   -0.7323    0.0000 H       1  UNL1        0.0311
     52 H           8.4261    1.1539    0.0000 H       1  UNL1        0.0269
     53 H           8.0163    1.8390    0.0000 H       1  UNL1        0.0269
     54 H           7.8129    4.5264    0.0000 H       1  UNL1        0.0272
     55 H           7.0930    4.9384    0.0000 H       1  UNL1        0.0272
     56 H           8.0419   -0.3699    0.0000 H       1  UNL1        0.0268
     57 H           8.4357    0.3245    0.0000 H       1  UNL1        0.0268
     58 H           5.4703    4.2877    0.0000 H       1  UNL1        0.0237
     59 H           4.6242    4.0575    0.0000 H       1  UNL1        0.0237
     60 H           4.8544    3.2114    0.0000 H       1  UNL1        0.0237
     61 H           4.8738    0.2731    0.0000 H       1  UNL1        0.0276
     62 H           4.4640   -0.4120    0.0000 H       1  UNL1        0.0276
     63 H           7.1544   -1.9791    0.0000 H       1  UNL1        0.0293
     64 H           7.5482   -1.2847    0.0000 H       1  UNL1        0.0293
     65 H           8.3019    2.5716    0.0000 H       1  UNL1        0.2102
     66 H           4.8320    0.9722    0.0000 H       1  UNL1        0.1032
     67 H           4.4539   -1.2847    0.0000 H       1  UNL1        0.0290
     68 H           4.8477   -1.9791    0.0000 H       1  UNL1        0.0290
     69 H           6.5386   -2.2529    0.0000 H       1  UNL1        0.0597
     70 H           6.3609    5.7555    0.0000 H       1  UNL1        0.0746
     71 H           6.0218    6.5127    0.0000 H       1  UNL1        0.0746
     72 H           4.2619    4.3230    0.0000 H       1  UNL1        0.0689
     73 H           5.6720   -3.7540    0.0000 H       1  UNL1        0.0949
     74 H           5.1350   -5.0640    0.0000 H       1  UNL1        0.0813
     75 H           3.7320   -5.2540    0.0000 H       1  UNL1        0.0662
     76 H           3.4030   -2.8240    0.0000 H       1  UNL1        0.0621
     77 H           3.4030   -5.0640    0.0000 H       1  UNL1        0.0646
     78 H           2.8469   -2.4070    0.0000 H       1  UNL1        0.0255
     79 H           2.0000   -2.6340    0.0000 H       1  UNL1        0.0255
     80 H           2.2269   -3.4809    0.0000 H       1  UNL1        0.0255
     81 H           2.0000   -4.6340    0.0000 H       1  UNL1        0.2100
     82 H           3.0930   -5.9070    0.0000 H       1  UNL1        0.0524
     83 H           2.8660   -6.7540    0.0000 H       1  UNL1        0.0524
     84 H           3.7130   -6.9809    0.0000 H       1  UNL1        0.0524
     85 H           6.5571   -6.9809    0.0000 H       1  UNL1        0.0342
     86 H           7.4040   -6.7540    0.0000 H       1  UNL1        0.0342
     87 H           7.1771   -5.9070    0.0000 H       1  UNL1        0.0342
@<TRIPOS>BOND
     1    15     1    1
     2    17     1    1
     3    14     2    1
     4     2    65    1
     5    31     3    1
     6    35     3    1
     7     4    29    2
     8     5    32    1
     9     5    34    1
    10     6    35    1
    11     6    38    1
    12     7    34    2
    13    36     8    1
    14     8    41    1
    15    37     9    1
    16     9    42    1
    17    39    10    1
    18    10    81    1
    19    11    41    2
    20    12    14    1
    21    12    15    1
    22    12    19    1
    23    12    25    1
    24    13    16    1
    25    13    17    1
    26    13    18    1
    27    13    44    1
    28    14    16    1
    29    14    20    1
    30    15    17    1
    31    15    45    1
    32    16    22    1
    33    16    46    1
    34    17    47    1
    35    18    21    1
    36    18    26    1
    37    18    29    1
    38    19    23    1
    39    19    28    1
    40    19    48    1
    41    20    23    1
    42    20    49    1
    43    20    50    1
    44    21    24    1
    45    21    27    1
    46    21    51    1
    47    22    24    1
    48    22    52    1
    49    22    53    1
    50    23    54    1
    51    23    55    1
    52    24    56    1
    53    24    57    1
    54    25    58    1
    55    25    59    1
    56    25    60    1
    57    26    30    1
    58    26    61    1
    59    26    62    1
    60    27    31    1
    61    27    63    1
    62    27    64    1
    63    28    32    1
    64    28    33    2
    65    29    66    1
    66    30    31    1
    67    30    67    1
    68    30    68    1
    69    31    69    1
    70    32    70    1
    71    32    71    1
    72    33    34    1
    73    33    72    1
    74    35    36    1
    75    35    73    1
    76    36    37    1
    77    36    74    1
    78    37    39    1
    79    37    75    1
    80    38    39    1
    81    38    40    1
    82    38    76    1
    83    39    77    1
    84    40    78    1
    85    40    79    1
    86    40    80    1
    87    41    43    1
    88    42    82    1
    89    42    83    1
    90    42    84    1
    91    43    85    1
    92    43    86    1
    93    43    87    1
