@<TRIPOS>MOLECULE
IMPHY016076
 44 43 0 0 0
SMALL
GASTEIGER

@<TRIPOS>ATOM
      1 O          12.3923    0.4400    0.0000 O.3     1  UNL1       -0.3950
      2 C           9.7942   -0.0600    0.0000 C.3     1  UNL1       -0.0415
      3 C           8.9282    0.4400    0.0000 C.3     1  UNL1       -0.0469
      4 C          10.6603    0.4400    0.0000 C.3     1  UNL1       -0.0271
      5 C           8.0622   -0.0600    0.0000 C.3     1  UNL1       -0.0343
      6 C           9.7942   -1.0600    0.0000 C.3     1  UNL1       -0.0623
      7 C           7.1962    0.4400    0.0000 C.2     1  UNL1       -0.0850
      8 C          11.5263   -0.0600    0.0000 C.3     1  UNL1        0.0444
      9 C           6.3301   -0.0600    0.0000 C.2     1  UNL1       -0.0762
     10 C           5.4641    0.4400    0.0000 C.3     1  UNL1       -0.0286
     11 C           4.5981   -0.0600    0.0000 C.3     1  UNL1       -0.0308
     12 C           6.3301   -1.0600    0.0000 C.3     1  UNL1       -0.0438
     13 C           3.7320    0.4400    0.0000 C.2     1  UNL1       -0.0850
     14 C           2.8660   -0.0600    0.0000 C.2     1  UNL1       -0.0796
     15 C           2.0000    0.4400    0.0000 C.3     1  UNL1       -0.0440
     16 C           2.8660   -1.0600    0.0000 C.3     1  UNL1       -0.0440
     17 H           9.2573   -0.3700    0.0000 H       1  UNL1        0.0299
     18 H           9.3267    0.9149    0.0000 H       1  UNL1        0.0271
     19 H           8.5297    0.9149    0.0000 H       1  UNL1        0.0271
     20 H          11.0588    0.9149    0.0000 H       1  UNL1        0.0290
     21 H          10.2617    0.9149    0.0000 H       1  UNL1        0.0290
     22 H           7.6636   -0.5349    0.0000 H       1  UNL1        0.0307
     23 H           8.4607   -0.5349    0.0000 H       1  UNL1        0.0307
     24 H           9.1742   -1.0600    0.0000 H       1  UNL1        0.0232
     25 H           9.7942   -1.6800    0.0000 H       1  UNL1        0.0232
     26 H          10.4142   -1.0600    0.0000 H       1  UNL1        0.0232
     27 H           7.1962    1.0600    0.0000 H       1  UNL1        0.0572
     28 H          11.1278   -0.5349    0.0000 H       1  UNL1        0.0557
     29 H          11.9248   -0.5349    0.0000 H       1  UNL1        0.0557
     30 H           5.8626    0.9149    0.0000 H       1  UNL1        0.0313
     31 H           5.0656    0.9149    0.0000 H       1  UNL1        0.0313
     32 H           4.1996   -0.5349    0.0000 H       1  UNL1        0.0310
     33 H           4.9966   -0.5349    0.0000 H       1  UNL1        0.0310
     34 H           5.7101   -1.0600    0.0000 H       1  UNL1        0.0274
     35 H           6.3301   -1.6800    0.0000 H       1  UNL1        0.0274
     36 H           6.9501   -1.0600    0.0000 H       1  UNL1        0.0274
     37 H           3.7320    1.0600    0.0000 H       1  UNL1        0.0572
     38 H          12.9292    0.1300    0.0000 H       1  UNL1        0.2094
     39 H           2.3100    0.9769    0.0000 H       1  UNL1        0.0274
     40 H           1.4631    0.7500    0.0000 H       1  UNL1        0.0274
     41 H           1.6900   -0.0969    0.0000 H       1  UNL1        0.0274
     42 H           2.2460   -1.0600    0.0000 H       1  UNL1        0.0274
     43 H           2.8660   -1.6800    0.0000 H       1  UNL1        0.0274
     44 H           3.4860   -1.0600    0.0000 H       1  UNL1        0.0274
@<TRIPOS>BOND
     1     1     8    1
     2     1    38    1
     3     2     3    1
     4     2     4    1
     5     2     6    1
     6     2    17    1
     7     3     5    1
     8     3    18    1
     9     3    19    1
    10     4     8    1
    11     4    20    1
    12     4    21    1
    13     5     7    1
    14     5    22    1
    15     5    23    1
    16     6    24    1
    17     6    25    1
    18     6    26    1
    19     7     9    2
    20     7    27    1
    21     8    28    1
    22     8    29    1
    23     9    10    1
    24     9    12    1
    25    10    11    1
    26    10    30    1
    27    10    31    1
    28    11    13    1
    29    11    32    1
    30    11    33    1
    31    12    34    1
    32    12    35    1
    33    12    36    1
    34    13    14    2
    35    13    37    1
    36    14    15    1
    37    14    16    1
    38    15    39    1
    39    15    40    1
    40    15    41    1
    41    16    42    1
    42    16    43    1
    43    16    44    1
