@<TRIPOS>MOLECULE
IMPHY003210
 56 60 0 0 0
SMALL
GASTEIGER

@<TRIPOS>ATOM
      1 O           4.2460   -1.3710    0.0000 O.3     1  UNL1       -0.4454
      2 O           3.7601   -0.8851    0.0000 O.3     1  UNL1       -0.4454
      3 O           3.9672   -3.1310    0.0000 O.2     1  UNL1       -0.2449
      4 O           2.0000   -1.1639    0.0000 O.2     1  UNL1       -0.2449
      5 C           5.0550   -0.7832    0.0000 C.3     1  UNL1        0.1825
      6 C           4.3479   -0.0761    0.0000 C.3     1  UNL1        0.1825
      7 C           5.7621   -0.0761    0.0000 C.3     1  UNL1        0.0141
      8 C           5.0550    0.6310    0.0000 C.3     1  UNL1        0.0141
      9 C           5.8640   -1.3710    0.0000 C.2     1  UNL1       -0.0078
     10 C           3.7601    0.7329    0.0000 C.2     1  UNL1       -0.0078
     11 C           5.0550    1.6310    0.0000 C.3     1  UNL1       -0.0460
     12 C           6.7621   -0.0761    0.0000 C.3     1  UNL1       -0.0460
     13 C           5.5550   -2.3220    0.0000 C.2     1  UNL1        0.0619
     14 C           2.8090    0.4239    0.0000 C.2     1  UNL1        0.0619
     15 C           6.8794   -1.1387    0.0000 C.3     1  UNL1       -0.0233
     16 C           3.9923    1.7484    0.0000 C.3     1  UNL1       -0.0233
     17 C           5.9210    2.1310    0.0000 C.3     1  UNL1       -0.0555
     18 C           7.2621    0.7900    0.0000 C.3     1  UNL1       -0.0555
     19 C           4.5550   -2.3220    0.0000 C.2     1  UNL1        0.3402
     20 C           2.8090   -0.5761    0.0000 C.2     1  UNL1        0.3402
     21 C           7.5823   -1.9074    0.0000 C.3     1  UNL1       -0.0306
     22 C           3.2236    2.4513    0.0000 C.3     1  UNL1       -0.0306
     23 C           6.2399   -3.1068    0.0000 C.2     1  UNL1       -0.0516
     24 C           2.0243    1.1089    0.0000 C.2     1  UNL1       -0.0516
     25 C           7.2604   -2.8980    0.0000 C.2     1  UNL1       -0.0829
     26 C           2.2330    2.1294    0.0000 C.2     1  UNL1       -0.0829
     27 C           5.9210    3.1310    0.0000 C.3     1  UNL1       -0.0653
     28 C           8.2621    0.7900    0.0000 C.3     1  UNL1       -0.0653
     29 H           5.9993   -0.6489    0.0000 H       1  UNL1        0.0348
     30 H           4.4822    0.8683    0.0000 H       1  UNL1        0.0348
     31 H           4.8429    2.2136    0.0000 H       1  UNL1        0.0269
     32 H           4.4444    1.5234    0.0000 H       1  UNL1        0.0269
     33 H           6.6544   -0.6867    0.0000 H       1  UNL1        0.0269
     34 H           7.3447   -0.2881    0.0000 H       1  UNL1        0.0269
     35 H           7.4018   -0.8048    0.0000 H       1  UNL1        0.0315
     36 H           6.6398   -0.5669    0.0000 H       1  UNL1        0.0315
     37 H           4.5642    1.5087    0.0000 H       1  UNL1        0.0315
     38 H           4.3263    2.2707    0.0000 H       1  UNL1        0.0315
     39 H           6.1330    1.5484    0.0000 H       1  UNL1        0.0263
     40 H           6.5316    2.2387    0.0000 H       1  UNL1        0.0263
     41 H           7.3697    1.4005    0.0000 H       1  UNL1        0.0263
     42 H           6.6795    1.0020    0.0000 H       1  UNL1        0.0263
     43 H           8.1305   -2.1971    0.0000 H       1  UNL1        0.0310
     44 H           7.9615   -1.4169    0.0000 H       1  UNL1        0.0310
     45 H           3.7142    2.8305    0.0000 H       1  UNL1        0.0310
     46 H           2.9340    2.9995    0.0000 H       1  UNL1        0.0310
     47 H           6.0415   -3.6942    0.0000 H       1  UNL1        0.0623
     48 H           1.4369    0.9105    0.0000 H       1  UNL1        0.0623
     49 H           7.6735   -3.3604    0.0000 H       1  UNL1        0.0572
     50 H           1.7706    2.5425    0.0000 H       1  UNL1        0.0572
     51 H           6.5410    3.1310    0.0000 H       1  UNL1        0.0230
     52 H           5.9210    3.7510    0.0000 H       1  UNL1        0.0230
     53 H           5.3010    3.1310    0.0000 H       1  UNL1        0.0230
     54 H           8.2621    0.1700    0.0000 H       1  UNL1        0.0230
     55 H           8.8821    0.7900    0.0000 H       1  UNL1        0.0230
     56 H           8.2621    1.4100    0.0000 H       1  UNL1        0.0230
@<TRIPOS>BOND
     1     5     1    1
     2     1    19    1
     3     6     2    1
     4     2    20    1
     5     3    19    2
     6     4    20    2
     7     5     6    1
     8     5     7    1
     9     5     9    1
    10     6     8    1
    11     6    10    1
    12     7     8    1
    13     7    12    1
    14     7    29    1
    15     8    11    1
    16     8    30    1
    17     9    13    2
    18     9    15    1
    19    10    14    2
    20    10    16    1
    21    11    17    1
    22    11    31    1
    23    11    32    1
    24    12    18    1
    25    12    33    1
    26    12    34    1
    27    13    19    1
    28    13    23    1
    29    14    20    1
    30    14    24    1
    31    15    21    1
    32    15    35    1
    33    15    36    1
    34    16    22    1
    35    16    37    1
    36    16    38    1
    37    17    27    1
    38    17    39    1
    39    17    40    1
    40    18    28    1
    41    18    41    1
    42    18    42    1
    43    21    25    1
    44    21    43    1
    45    21    44    1
    46    22    26    1
    47    22    45    1
    48    22    46    1
    49    23    25    2
    50    23    47    1
    51    24    26    2
    52    24    48    1
    53    25    49    1
    54    26    50    1
    55    27    51    1
    56    27    52    1
    57    27    53    1
    58    28    54    1
    59    28    55    1
    60    28    56    1
