@<TRIPOS>MOLECULE
IMPHY007877
 45 47 0 0 0
SMALL
GASTEIGER

@<TRIPOS>ATOM
      1 O           6.8671   -0.2866    0.0000 O.3     1  UNL1       -0.3095
      2 O           6.0010    1.2134    0.0000 O.2     1  UNL1       -0.4709
      3 O           8.9900   -0.0418    0.0000 O.3     1  UNL1       -0.3912
      4 O           8.9900    3.4687    0.0000 O.3     1  UNL1       -0.3911
      5 O           5.1350   -0.2866    0.0000 O.3     1  UNL1       -0.3404
      6 O           6.8671   -2.2866    0.0000 O.3     1  UNL1       -0.3841
      7 O           5.1350   -3.2866    0.0000 O.3     1  UNL1       -0.3864
      8 O           3.4030   -2.2866    0.0000 O.3     1  UNL1       -0.3865
      9 O           2.5369   -0.7866    0.0000 O.3     1  UNL1       -0.3924
     10 C           7.7331    1.2134    0.0000 C.3     1  UNL1        0.0563
     11 C           7.7331    2.2134    0.0000 C.3     1  UNL1        0.0172
     12 C           8.6793    0.9087    0.0000 C.3     1  UNL1        0.0667
     13 C           8.6793    2.5182    0.0000 C.3     1  UNL1        0.0644
     14 C           9.2629    1.7134    0.0000 C.3     1  UNL1        0.0003
     15 C           6.8671    0.7134    0.0000 C.3     1  UNL1        0.2092
     16 C           6.8671    2.7134    0.0000 C.2     1  UNL1       -0.0435
     17 C           6.0010   -0.7866    0.0000 C.3     1  UNL1        0.1918
     18 C           6.0010   -1.7866    0.0000 C.3     1  UNL1        0.1342
     19 C           5.1350   -2.2866    0.0000 C.3     1  UNL1        0.1141
     20 C           4.2690   -1.7866    0.0000 C.3     1  UNL1        0.1119
     21 C           4.2690   -0.7866    0.0000 C.3     1  UNL1        0.1130
     22 C           6.0010    2.2134    0.0000 C.2     1  UNL1        0.0843
     23 C           3.4030   -0.2866    0.0000 C.3     1  UNL1        0.0730
     24 H           7.8230    0.3682    0.0000 H       1  UNL1        0.0393
     25 H           7.8230    3.0587    0.0000 H       1  UNL1        0.0375
     26 H           8.2418    0.4694    0.0000 H       1  UNL1        0.0599
     27 H           8.2418    2.9575    0.0000 H       1  UNL1        0.0600
     28 H           9.7238    1.2987    0.0000 H       1  UNL1        0.0315
     29 H           9.7238    2.1282    0.0000 H       1  UNL1        0.0315
     30 H           7.4040    0.4034    0.0000 H       1  UNL1        0.1060
     31 H           6.8671    3.3334    0.0000 H       1  UNL1        0.0606
     32 H           6.0010   -0.1666    0.0000 H       1  UNL1        0.0939
     33 H           6.0010   -2.4066    0.0000 H       1  UNL1        0.0671
     34 H           4.5981   -2.5966    0.0000 H       1  UNL1        0.0648
     35 H           3.7320   -1.4766    0.0000 H       1  UNL1        0.0647
     36 H           4.2690   -0.1666    0.0000 H       1  UNL1        0.0647
     37 H           5.4641    2.5234    0.0000 H       1  UNL1        0.1021
     38 H           9.5966   -0.1697    0.0000 H       1  UNL1        0.2098
     39 H           9.5966    3.5966    0.0000 H       1  UNL1        0.2098
     40 H           3.8015    0.1884    0.0000 H       1  UNL1        0.0584
     41 H           3.0044    0.1884    0.0000 H       1  UNL1        0.0584
     42 H           6.8671   -2.9066    0.0000 H       1  UNL1        0.2101
     43 H           4.5981   -3.5966    0.0000 H       1  UNL1        0.2100
     44 H           3.4030   -2.9066    0.0000 H       1  UNL1        0.2100
     45 H           2.0000   -0.4766    0.0000 H       1  UNL1        0.2095
@<TRIPOS>BOND
     1    15     1    1
     2    17     1    1
     3     2    15    1
     4     2    22    1
     5    12     3    1
     6     3    38    1
     7    13     4    1
     8     4    39    1
     9     5    17    1
    10     5    21    1
    11    18     6    1
    12     6    42    1
    13    19     7    1
    14     7    43    1
    15    20     8    1
    16     8    44    1
    17     9    23    1
    18     9    45    1
    19    10    11    1
    20    10    12    1
    21    10    15    1
    22    10    24    1
    23    11    13    1
    24    11    16    1
    25    11    25    1
    26    12    14    1
    27    12    26    1
    28    13    14    1
    29    13    27    1
    30    14    28    1
    31    14    29    1
    32    15    30    1
    33    16    22    2
    34    16    31    1
    35    17    18    1
    36    17    32    1
    37    18    19    1
    38    18    33    1
    39    19    20    1
    40    19    34    1
    41    20    21    1
    42    20    35    1
    43    21    23    1
    44    21    36    1
    45    22    37    1
    46    23    40    1
    47    23    41    1
