@<TRIPOS>MOLECULE
IMPHY010763
 73 81 0 0 0
SMALL
GASTEIGER

@<TRIPOS>ATOM
      1 O           6.3282   -1.9980    0.0000 O.3     1  UNL1       -0.3311
      2 O          15.3291    1.1070    0.0000 O.3     1  UNL1       -0.3284
      3 O          15.3291    3.1987    0.0000 O.3     1  UNL1       -0.2205
      4 O           8.1424   -3.7759    0.0000 O.3     1  UNL1       -0.2203
      5 O           4.5961   -1.9913    0.0000 O.3     1  UNL1       -0.3170
      6 O          16.2009    2.6037    0.0000 O.3     1  UNL1       -0.3257
      7 O           6.3359    0.0020    0.0000 O.3     1  UNL1       -0.3231
      8 O          17.0573    0.1004    0.0000 O.3     1  UNL1       -0.2150
      9 O           4.6077    1.0086    0.0000 O.3     1  UNL1       -0.2175
     10 O          18.7932    1.0937    0.0000 O.3     1  UNL1       -0.3255
     11 O           2.8718    0.0153    0.0000 O.3     1  UNL1       -0.2171
     12 O          18.8009    3.0937    0.0000 O.3     1  UNL1       -0.2177
     13 O           5.4756    1.5053    0.0000 O.3     1  UNL1       -0.3257
     14 O           2.8602   -2.9846    0.0000 O.co2   1  UNL1       -0.2429
     15 O           2.0000   -1.4813    0.0000 O.co2   1  UNL1       -0.2429
     16 O          19.6650    2.5903    0.0000 O.3     1  UNL1       -0.3257
     17 O           8.0718    0.9953    0.0000 O.3     1  UNL1       -0.2149
     18 O           8.0795    2.9953    0.0000 O.3     1  UNL1       -0.2174
     19 O          20.5214    0.0870    0.0000 O.3     1  UNL1       -0.2149
     20 O           6.3513    4.0019    0.0000 O.3     1  UNL1       -0.2176
     21 O          22.2573    1.0803    0.0000 O.3     1  UNL1       -0.2174
     22 O          22.2650    3.0803    0.0000 O.3     1  UNL1       -0.2176
     23 C          10.8552   -0.4457    0.0000 C.3     1  UNL1        0.0035
     24 C           9.9892    0.0543    0.0000 C.3     1  UNL1        0.0046
     25 C           9.0792   -0.4525    0.0000 C.3     1  UNL1        0.0006
     26 C          11.7213    0.0543    0.0000 C.3     1  UNL1        0.0149
     27 C           9.0712   -1.4941    0.0000 C.3     1  UNL1        0.0047
     28 C          10.8713   -1.4872    0.0000 C.3     1  UNL1        0.0003
     29 C          11.7213    1.0543    0.0000 C.2     1  UNL1       -0.0493
     30 C          12.6152    1.5890    0.0000 C.3     1  UNL1        0.0204
     31 C           9.9732   -2.0149    0.0000 C.3     1  UNL1        0.0002
     32 C           8.1357   -2.0438    0.0000 C.3     1  UNL1        0.0557
     33 C          13.5213    1.0751    0.0000 C.3     1  UNL1        0.0310
     34 C          12.6152   -0.4803    0.0000 C.3     1  UNL1        0.0038
     35 C           9.9892    1.0543    0.0000 C.3     1  UNL1        0.0254
     36 C           8.1524    0.1116    0.0000 C.3     1  UNL1        0.0025
     37 C          13.5213    0.0335    0.0000 C.3     1  UNL1        0.0030
     38 C          11.4980   -1.2117    0.0000 C.3     1  UNL1        0.0003
     39 C           7.1961   -1.5014    0.0000 C.3     1  UNL1        0.1202
     40 C          10.8552    1.5543    0.0000 C.2     1  UNL1       -0.0346
     41 C           9.0869    0.5474    0.0000 C.3     1  UNL1        0.0000
     42 C           7.2045   -0.4164    0.0000 C.3     1  UNL1        0.0297
     43 C          12.0634   -0.8853    0.0000 C.3     1  UNL1        0.0040
     44 C          12.5901    2.6737    0.0000 C.3     1  UNL1        0.0066
     45 C          14.4650    1.6104    0.0000 C.3     1  UNL1        0.1482
     46 C          13.5213    3.2306    0.0000 C.3     1  UNL1        0.0309
     47 C          14.4650    2.6954    0.0000 C.3     1  UNL1        0.1788
     48 C           7.6391   -2.9118    0.0000 C.3     1  UNL1        0.1843
     49 C           8.6391   -2.9079    0.0000 C.3     1  UNL1        0.0050
     50 C          14.3911    0.5818    0.0000 C.3     1  UNL1        0.0028
     51 C          14.0112    4.1024    0.0000 C.3     1  UNL1        0.0026
     52 C          13.0113    4.0908    0.0000 C.3     1  UNL1        0.0026
     53 C           5.4641   -1.4947    0.0000 C.3     1  UNL1        0.2666
     54 C          16.1971    1.6037    0.0000 C.3     1  UNL1        0.2693
     55 C           5.4679   -0.4947    0.0000 C.3     1  UNL1        0.2067
     56 C          17.0612    1.1004    0.0000 C.3     1  UNL1        0.2374
     57 C           4.6038    0.0087    0.0000 C.3     1  UNL1        0.2172
     58 C          17.9291    1.5970    0.0000 C.3     1  UNL1        0.1858
     59 C           3.7320   -1.4880    0.0000 C.3     1  UNL1        0.2529
     60 C           3.7359   -0.4880    0.0000 C.3     1  UNL1        0.2228
     61 C          17.0689    3.1003    0.0000 C.3     1  UNL1        0.1802
     62 C          17.9330    2.5970    0.0000 C.3     1  UNL1        0.2111
     63 C           6.3397    1.0020    0.0000 C.3     1  UNL1        0.2696
     64 C           2.8641   -1.9847    0.0000 C.2     1  UNL1        0.3941
     65 C           7.2077    1.4986    0.0000 C.3     1  UNL1        0.2406
     66 C          19.6612    1.5903    0.0000 C.3     1  UNL1        0.2695
     67 C           7.2115    2.4986    0.0000 C.3     1  UNL1        0.2198
     68 C          20.5253    1.0870    0.0000 C.3     1  UNL1        0.2406
     69 C           5.4795    2.5053    0.0000 C.3     1  UNL1        0.1803
     70 C           6.3474    3.0020    0.0000 C.3     1  UNL1        0.2143
     71 C          21.3932    1.5837    0.0000 C.3     1  UNL1        0.2198
     72 C          20.5330    3.0870    0.0000 C.3     1  UNL1        0.1803
     73 C          21.3971    2.5837    0.0000 C.3     1  UNL1        0.2143
@<TRIPOS>BOND
     1     1    39    1
     2     4    48    1
     3     5    53    1
     4     5    59    1
     5     6    54    1
     6     6    61    1
     7    13    63    1
     8    13    69    1
     9    14    64   ar
    10    15    64   ar
    11    16    66    1
    12    16    72    1
    13    23    24    1
    14    23    26    1
    15    23    28    1
    16    23    38    1
    17    24    25    1
    18    24    35    1
    19    25    27    1
    20    25    36    1
    21    25    41    1
    22    26    29    1
    23    26    34    1
    24    26    43    1
    25    27    31    1
    26    27    32    1
    27    28    31    1
    28    29    30    1
    29    29    40    2
    30    30    33    1
    31    30    44    1
    32    32    39    1
    33    32    48    1
    34    32    49    1
    35    33    37    1
    36    33    45    1
    37    33    50    1
    38    34    37    1
    39    35    40    1
    40    36    42    1
    41    39    42    1
    42    44    46    1
    43    45     2    1
    44    45    47    1
    45    46    47    1
    46    46    51    1
    47    46    52    1
    48    47     3    1
    49    53     1    1
    50    53    55    1
    51    54     2    1
    52    54    56    1
    53    55     7    1
    54    55    57    1
    55    56     8    1
    56    56    58    1
    57    57     9    1
    58    57    60    1
    59    58    10    1
    60    58    62    1
    61    59    60    1
    62    59    64    1
    63    60    11    1
    64    61    62    1
    65    62    12    1
    66    63     7    1
    67    63    65    1
    68    65    17    1
    69    65    67    1
    70    66    10    1
    71    66    68    1
    72    67    18    1
    73    67    70    1
    74    68    19    1
    75    68    71    1
    76    69    70    1
    77    70    20    1
    78    71    21    1
    79    71    73    1
    80    72    73    1
    81    73    22    1
