@<TRIPOS>MOLECULE
IMPHY012347
 26 27 0 0 0
SMALL
GASTEIGER

@<TRIPOS>ATOM
      1 O           4.6660   -0.8343    0.0000 O.3     1  UNL1       -0.4860
      2 C           5.5321   -0.3343    0.0000 C.3     1  UNL1        0.1054
      3 C           5.5321    0.6657    0.0000 C.3     1  UNL1       -0.0093
      4 C           4.6660    1.1657    0.0000 C.3     1  UNL1       -0.0206
      5 C           3.8000    0.6657    0.0000 C.ar    1  UNL1       -0.0056
      6 C           6.5321   -0.3343    0.0000 C.3     1  UNL1       -0.0252
      7 C           6.0321   -1.2003    0.0000 C.3     1  UNL1       -0.0252
      8 C           3.8000   -0.3343    0.0000 C.ar    1  UNL1        0.1244
      9 C           2.9061    1.2003    0.0000 C.ar    1  UNL1       -0.0551
     10 C           2.9061   -0.8690    0.0000 C.ar    1  UNL1       -0.0196
     11 C           2.0000    0.6865    0.0000 C.ar    1  UNL1       -0.0613
     12 C           2.0000   -0.3551    0.0000 C.ar    1  UNL1       -0.0583
     13 H           6.1426    0.5580    0.0000 H       1  UNL1        0.0307
     14 H           5.7441    1.2483    0.0000 H       1  UNL1        0.0307
     15 H           5.0646    1.6406    0.0000 H       1  UNL1        0.0316
     16 H           4.2675    1.6406    0.0000 H       1  UNL1        0.0316
     17 H           6.5321   -0.9543    0.0000 H       1  UNL1        0.0268
     18 H           7.1521   -0.3343    0.0000 H       1  UNL1        0.0268
     19 H           6.5321    0.2857    0.0000 H       1  UNL1        0.0268
     20 H           5.4951   -1.5103    0.0000 H       1  UNL1        0.0268
     21 H           6.3421   -1.7373    0.0000 H       1  UNL1        0.0268
     22 H           6.5690   -0.8903    0.0000 H       1  UNL1        0.0268
     23 H           2.9132    1.8203    0.0000 H       1  UNL1        0.0621
     24 H           2.9132   -1.4889    0.0000 H       1  UNL1        0.0654
     25 H           1.4643    0.9986    0.0000 H       1  UNL1        0.0618
     26 H           1.4643   -0.6672    0.0000 H       1  UNL1        0.0619
@<TRIPOS>BOND
     1     1     2    1
     2     1     8    1
     3     2     3    1
     4     2     6    1
     5     2     7    1
     6     3     4    1
     7     3    13    1
     8     3    14    1
     9     4     5    1
    10     4    15    1
    11     4    16    1
    12     5     8   ar
    13     5     9   ar
    14     6    17    1
    15     6    18    1
    16     6    19    1
    17     7    20    1
    18     7    21    1
    19     7    22    1
    20     8    10   ar
    21     9    11   ar
    22     9    23    1
    23    10    12   ar
    24    10    24    1
    25    11    12   ar
    26    11    25    1
    27    12    26    1
