@<TRIPOS>MOLECULE
IMPHY015179
 34 33 0 0 0
SMALL
GASTEIGER

@<TRIPOS>ATOM
      1 C           6.3301   -0.6550    0.0000 C.3     1  UNL1       -0.0531
      2 C           5.4641   -0.1550    0.0000 C.3     1  UNL1       -0.0531
      3 C           7.1962   -0.1550    0.0000 C.3     1  UNL1       -0.0530
      4 C           4.5981   -0.6550    0.0000 C.3     1  UNL1       -0.0531
      5 C           8.0622   -0.6550    0.0000 C.3     1  UNL1       -0.0522
      6 C           3.7320   -0.1550    0.0000 C.3     1  UNL1       -0.0533
      7 C           8.9282   -0.1550    0.0000 C.3     1  UNL1       -0.0422
      8 C           2.8660   -0.6550    0.0000 C.3     1  UNL1       -0.0559
      9 C           9.7942   -0.6550    0.0000 C.3     1  UNL1        0.0089
     10 C           2.0000   -0.1550    0.0000 C.3     1  UNL1       -0.0653
     11 C          10.6603   -0.1550    0.0000 C.1     1  UNL1       -0.1056
     12 C          11.5263    0.3450    0.0000 C.1     1  UNL1       -0.1192
     13 H           5.9316   -1.1300    0.0000 H       1  UNL1        0.0265
     14 H           6.7287   -1.1300    0.0000 H       1  UNL1        0.0265
     15 H           5.8626    0.3199    0.0000 H       1  UNL1        0.0265
     16 H           5.0656    0.3199    0.0000 H       1  UNL1        0.0265
     17 H           7.5947    0.3199    0.0000 H       1  UNL1        0.0265
     18 H           6.7976    0.3199    0.0000 H       1  UNL1        0.0265
     19 H           4.1996   -1.1300    0.0000 H       1  UNL1        0.0265
     20 H           4.9966   -1.1300    0.0000 H       1  UNL1        0.0265
     21 H           7.6636   -1.1300    0.0000 H       1  UNL1        0.0266
     22 H           8.4607   -1.1300    0.0000 H       1  UNL1        0.0266
     23 H           4.1306    0.3199    0.0000 H       1  UNL1        0.0265
     24 H           3.3335    0.3199    0.0000 H       1  UNL1        0.0265
     25 H           9.3267    0.3199    0.0000 H       1  UNL1        0.0274
     26 H           8.5297    0.3199    0.0000 H       1  UNL1        0.0274
     27 H           2.4675   -1.1300    0.0000 H       1  UNL1        0.0263
     28 H           3.2646   -1.1300    0.0000 H       1  UNL1        0.0263
     29 H           9.3957   -1.1300    0.0000 H       1  UNL1        0.0397
     30 H          10.1928   -1.1300    0.0000 H       1  UNL1        0.0397
     31 H           2.3100    0.3819    0.0000 H       1  UNL1        0.0230
     32 H           1.4631    0.1550    0.0000 H       1  UNL1        0.0230
     33 H           1.6900   -0.6919    0.0000 H       1  UNL1        0.0230
     34 H          12.0632    0.6550    0.0000 H       1  UNL1        0.1228
@<TRIPOS>BOND
     1     1     2    1
     2     1     3    1
     3     1    13    1
     4     1    14    1
     5     2     4    1
     6     2    15    1
     7     2    16    1
     8     3     5    1
     9     3    17    1
    10     3    18    1
    11     4     6    1
    12     4    19    1
    13     4    20    1
    14     5     7    1
    15     5    21    1
    16     5    22    1
    17     6     8    1
    18     6    23    1
    19     6    24    1
    20     7     9    1
    21     7    25    1
    22     7    26    1
    23     8    10    1
    24     8    27    1
    25     8    28    1
    26     9    11    1
    27     9    29    1
    28     9    30    1
    29    10    31    1
    30    10    32    1
    31    10    33    1
    32    11    12    3
    33    12    34    1
