@<TRIPOS>MOLECULE
IMPHY012358
 45 47 0 0 0
SMALL
GASTEIGER

@<TRIPOS>ATOM
      1 O           8.0901   -0.9226    0.0000 O.3     1  UNL1       -0.4828
      2 O           6.3301    2.1121    0.0000 O.3     1  UNL1       -0.5055
      3 O           8.0785    2.1467    0.0000 O.2     1  UNL1       -0.2917
      4 O           4.5981   -0.8879    0.0000 O.3     1  UNL1       -0.5062
      5 O          12.4525   -2.4221    0.0000 O.3     1  UNL1       -0.5068
      6 C           8.9962   -0.4087    0.0000 C.3     1  UNL1        0.1322
      7 C           8.9962    0.6329    0.0000 C.3     1  UNL1        0.0520
      8 C           7.1962    0.6121    0.0000 C.ar    1  UNL1        0.1009
      9 C           7.1962   -0.3879    0.0000 C.ar    1  UNL1        0.1389
     10 C           8.0901    1.1467    0.0000 C.2     1  UNL1        0.1740
     11 C           9.8602   -0.9121    0.0000 C.ar    1  UNL1       -0.0067
     12 C           6.3301    1.1121    0.0000 C.ar    1  UNL1        0.1378
     13 C           5.4641    0.6121    0.0000 C.ar    1  UNL1        0.0400
     14 C           6.3301   -0.8879    0.0000 C.ar    1  UNL1        0.0228
     15 C           5.4641   -0.3879    0.0000 C.ar    1  UNL1        0.1273
     16 C           4.5981    1.1121    0.0000 C.3     1  UNL1       -0.0023
     17 C          10.7282   -0.4154    0.0000 C.ar    1  UNL1       -0.0516
     18 C           9.8564   -1.9121    0.0000 C.ar    1  UNL1       -0.0516
     19 C           3.7320    0.6121    0.0000 C.2     1  UNL1       -0.0807
     20 C          11.5923   -0.9188    0.0000 C.ar    1  UNL1       -0.0198
     21 C          10.7205   -2.4154    0.0000 C.ar    1  UNL1       -0.0198
     22 C          11.5884   -1.9187    0.0000 C.ar    1  UNL1        0.1169
     23 C           2.8660    1.1121    0.0000 C.2     1  UNL1       -0.0793
     24 C           2.0000    0.6121    0.0000 C.3     1  UNL1       -0.0440
     25 C           2.8660    2.1121    0.0000 C.3     1  UNL1       -0.0440
     26 H           8.9926   -1.0287    0.0000 H       1  UNL1        0.0789
     27 H           9.6070    0.5268    0.0000 H       1  UNL1        0.0385
     28 H           9.2052    1.2166    0.0000 H       1  UNL1        0.0385
     29 H           6.3301   -1.5079    0.0000 H       1  UNL1        0.0691
     30 H           4.9966    1.5870    0.0000 H       1  UNL1        0.0358
     31 H           4.1996    1.5870    0.0000 H       1  UNL1        0.0358
     32 H          10.7306    0.2046    0.0000 H       1  UNL1        0.0623
     33 H           9.3183   -2.2200    0.0000 H       1  UNL1        0.0623
     34 H           3.7320   -0.0079    0.0000 H       1  UNL1        0.0575
     35 H          12.1304   -0.6108    0.0000 H       1  UNL1        0.0654
     36 H          10.7181   -3.0354    0.0000 H       1  UNL1        0.0654
     37 H           5.7932    2.4221    0.0000 H       1  UNL1        0.2922
     38 H           4.5981   -1.5079    0.0000 H       1  UNL1        0.2921
     39 H           1.6900    1.1490    0.0000 H       1  UNL1        0.0274
     40 H           1.4631    0.3021    0.0000 H       1  UNL1        0.0274
     41 H           2.3100    0.0751    0.0000 H       1  UNL1        0.0274
     42 H           3.4860    2.1121    0.0000 H       1  UNL1        0.0274
     43 H           2.8660    2.7321    0.0000 H       1  UNL1        0.0274
     44 H           2.2460    2.1121    0.0000 H       1  UNL1        0.0274
     45 H          12.9907   -2.1142    0.0000 H       1  UNL1        0.2921
@<TRIPOS>BOND
     1     1     6    1
     2     1     9    1
     3     2    12    1
     4     2    37    1
     5     3    10    2
     6     4    15    1
     7     4    38    1
     8     5    22    1
     9     5    45    1
    10     6     7    1
    11     6    11    1
    12     6    26    1
    13     7    10    1
    14     7    27    1
    15     7    28    1
    16     8     9   ar
    17     8    10    1
    18     8    12   ar
    19     9    14   ar
    20    11    17   ar
    21    11    18   ar
    22    12    13   ar
    23    13    15   ar
    24    13    16    1
    25    14    15   ar
    26    14    29    1
    27    16    19    1
    28    16    30    1
    29    16    31    1
    30    17    20   ar
    31    17    32    1
    32    18    21   ar
    33    18    33    1
    34    19    23    2
    35    19    34    1
    36    20    22   ar
    37    20    35    1
    38    21    22   ar
    39    21    36    1
    40    23    24    1
    41    23    25    1
    42    24    39    1
    43    24    40    1
    44    24    41    1
    45    25    42    1
    46    25    43    1
    47    25    44    1
