@<TRIPOS>MOLECULE
IMPHY016229
 20 19 0 0 0
SMALL
GASTEIGER

@<TRIPOS>ATOM
      1 O           2.0000    0.1900    0.0000 O.2     1  UNL1       -0.3007
      2 C           3.7320    0.1900    0.0000 C.3     1  UNL1        0.0176
      3 C           3.7320   -0.8100    0.0000 C.3     1  UNL1       -0.0463
      4 C           4.5981    0.6900    0.0000 C.3     1  UNL1       -0.0258
      5 C           4.5981   -1.3100    0.0000 C.3     1  UNL1       -0.0646
      6 C           2.8660    0.6900    0.0000 C.2     1  UNL1        0.1236
      7 C           5.4641    0.1900    0.0000 C.2     1  UNL1       -0.0905
      8 C           6.3301    0.6900    0.0000 C.2     1  UNL1       -0.1026
      9 H           3.7320    0.8100    0.0000 H       1  UNL1        0.0377
     10 H           3.1215   -0.7023    0.0000 H       1  UNL1        0.0269
     11 H           3.5200   -1.3926    0.0000 H       1  UNL1        0.0269
     12 H           4.9966    1.1650    0.0000 H       1  UNL1        0.0314
     13 H           4.1996    1.1650    0.0000 H       1  UNL1        0.0314
     14 H           4.2881   -1.8469    0.0000 H       1  UNL1        0.0230
     15 H           5.1350   -1.6200    0.0000 H       1  UNL1        0.0230
     16 H           4.9081   -0.7731    0.0000 H       1  UNL1        0.0230
     17 H           2.8660    1.3100    0.0000 H       1  UNL1        0.1029
     18 H           5.4641   -0.4300    0.0000 H       1  UNL1        0.0566
     19 H           6.8671    0.3800    0.0000 H       1  UNL1        0.0532
     20 H           6.3301    1.3100    0.0000 H       1  UNL1        0.0532
@<TRIPOS>BOND
     1     1     6    2
     2     2     3    1
     3     2     4    1
     4     2     6    1
     5     2     9    1
     6     3     5    1
     7     3    10    1
     8     3    11    1
     9     4     7    1
    10     4    12    1
    11     4    13    1
    12     5    14    1
    13     5    15    1
    14     5    16    1
    15     6    17    1
    16     7     8    2
    17     7    18    1
    18     8    19    1
    19     8    20    1
