@<TRIPOS>MOLECULE
IMPHY011154
 30 31 0 0 0
SMALL
GASTEIGER

@<TRIPOS>ATOM
      1 O           7.2241   -1.7847    0.0000 O.2     1  UNL1       -0.4220
      2 O           3.7320   -1.7500    0.0000 O.3     1  UNL1       -0.4944
      3 O           8.9942   -1.7742    0.0000 O.2     1  UNL1       -0.2452
      4 O           2.0000    1.2500    0.0000 O.2     1  UNL1       -0.2930
      5 C           6.3301   -0.2500    0.0000 C.ar    1  UNL1        0.0184
      6 C           4.5981   -0.2500    0.0000 C.ar    1  UNL1        0.0175
      7 C           6.3301   -1.2500    0.0000 C.ar    1  UNL1        0.1426
      8 C           5.4641    0.2500    0.0000 C.ar    1  UNL1       -0.0404
      9 C           4.5981   -1.2500    0.0000 C.ar    1  UNL1        0.1307
     10 C           5.4641   -1.7500    0.0000 C.ar    1  UNL1        0.0237
     11 C           7.2241    0.2847    0.0000 C.ar    1  UNL1       -0.0443
     12 C           3.7320    0.2500    0.0000 C.2     1  UNL1       -0.0478
     13 C           8.1301   -0.2292    0.0000 C.ar    1  UNL1        0.0236
     14 C           8.1301   -1.2708    0.0000 C.ar    1  UNL1        0.3372
     15 C           3.7320    1.2500    0.0000 C.2     1  UNL1       -0.0188
     16 C           3.7320   -2.7500    0.0000 C.3     1  UNL1        0.0788
     17 C           2.8660    1.7500    0.0000 C.2     1  UNL1        0.1531
     18 C           2.8660    2.7500    0.0000 C.3     1  UNL1       -0.0020
     19 H           5.4641    0.8700    0.0000 H       1  UNL1        0.0632
     20 H           5.4641   -2.3700    0.0000 H       1  UNL1        0.0691
     21 H           7.2169    0.9046    0.0000 H       1  UNL1        0.0627
     22 H           3.1951   -0.0600    0.0000 H       1  UNL1        0.0626
     23 H           8.6659    0.0829    0.0000 H       1  UNL1        0.0689
     24 H           4.2690    1.5600    0.0000 H       1  UNL1        0.0652
     25 H           3.1120   -2.7500    0.0000 H       1  UNL1        0.0660
     26 H           3.7320   -3.3700    0.0000 H       1  UNL1        0.0660
     27 H           4.3520   -2.7500    0.0000 H       1  UNL1        0.0660
     28 H           3.4860    2.7500    0.0000 H       1  UNL1        0.0309
     29 H           2.8660    3.3700    0.0000 H       1  UNL1        0.0309
     30 H           2.2460    2.7500    0.0000 H       1  UNL1        0.0309
@<TRIPOS>BOND
     1     1     7   ar
     2     1    14   ar
     3     2     9    1
     4     2    16    1
     5     3    14    2
     6     4    17    2
     7     5     7   ar
     8     5     8   ar
     9     5    11   ar
    10     6     8   ar
    11     6     9   ar
    12     6    12    1
    13     7    10   ar
    14     8    19    1
    15     9    10   ar
    16    10    20    1
    17    11    13   ar
    18    11    21    1
    19    12    15    2
    20    12    22    1
    21    13    14   ar
    22    13    23    1
    23    15    17    1
    24    15    24    1
    25    16    25    1
    26    16    26    1
    27    16    27    1
    28    17    18    1
    29    18    28    1
    30    18    29    1
    31    18    30    1
