@<TRIPOS>MOLECULE
IMPHY017359
 40 43 0 0 0
SMALL
GASTEIGER

@<TRIPOS>ATOM
      1 O           2.1452   -0.6274    0.0000 O.3     1  UNL1       -0.3647
      2 C           3.8778   -1.6274    0.0000 C.3     1  UNL1       -0.0004
      3 C           4.7438   -1.1274    0.0000 C.3     1  UNL1       -0.0231
      4 C           4.7438   -0.1274    0.0000 C.3     1  UNL1       -0.0292
      5 C           2.1223    0.3862    0.0000 C.3     1  UNL1       -0.0264
      6 C           3.0118   -1.1274    0.0000 C.3     1  UNL1        0.0968
      7 C           3.0118   -0.1274    0.0000 C.3     1  UNL1        0.0887
      8 C           3.8778    0.3726    0.0000 C.3     1  UNL1       -0.0202
      9 C           2.8061    1.1282    0.0000 C.3     1  UNL1       -0.0314
     10 C           5.0446   -0.1642    0.0000 C.3     1  UNL1       -0.0470
     11 C           4.7438   -2.1274    0.0000 C.3     1  UNL1       -0.0589
     12 C           3.8036    1.2803    0.0000 C.3     1  UNL1       -0.0476
     13 C           3.0118   -2.1274    0.0000 C.3     1  UNL1       -0.0331
     14 C           4.6775    0.7757    0.0000 C.3     1  UNL1       -0.0521
     15 C           2.0000    1.7199    0.0000 C.3     1  UNL1       -0.0595
     16 C           2.7662    2.1274    0.0000 C.3     1  UNL1       -0.0595
     17 H           3.8778   -2.2474    0.0000 H       1  UNL1        0.0338
     18 H           5.2808    0.1826    0.0000 H       1  UNL1        0.0310
     19 H           1.5024    0.3947    0.0000 H       1  UNL1        0.0313
     20 H           2.7018    0.4096    0.0000 H       1  UNL1        0.0625
     21 H           4.2763    0.8476    0.0000 H       1  UNL1        0.0294
     22 H           3.4793    0.8476    0.0000 H       1  UNL1        0.0294
     23 H           5.5558   -0.5149    0.0000 H       1  UNL1        0.0271
     24 H           5.5302    0.2213    0.0000 H       1  UNL1        0.0271
     25 H           4.1238   -2.1274    0.0000 H       1  UNL1        0.0235
     26 H           4.7438   -2.7474    0.0000 H       1  UNL1        0.0235
     27 H           5.3638   -2.1274    0.0000 H       1  UNL1        0.0235
     28 H           4.2579    1.7022    0.0000 H       1  UNL1        0.0271
     29 H           3.5340    1.8386    0.0000 H       1  UNL1        0.0271
     30 H           2.3918   -2.1274    0.0000 H       1  UNL1        0.0258
     31 H           3.0118   -2.7474    0.0000 H       1  UNL1        0.0258
     32 H           3.6318   -2.1274    0.0000 H       1  UNL1        0.0258
     33 H           5.2958    0.8214    0.0000 H       1  UNL1        0.0266
     34 H           4.8158    1.3801    0.0000 H       1  UNL1        0.0266
     35 H           2.3669    2.2197    0.0000 H       1  UNL1        0.0235
     36 H           1.5002    2.0868    0.0000 H       1  UNL1        0.0235
     37 H           1.6331    1.2201    0.0000 H       1  UNL1        0.0235
     38 H           3.3857    2.1521    0.0000 H       1  UNL1        0.0235
     39 H           2.7414    2.7469    0.0000 H       1  UNL1        0.0235
     40 H           2.1467    2.1026    0.0000 H       1  UNL1        0.0235
@<TRIPOS>BOND
     1     1     6    1
     2     1     7    1
     3     2     3    1
     4     2     5    1
     5     2     6    1
     6     2    17    1
     7     3     4    1
     8     3    10    1
     9     3    11    1
    10     4     5    1
    11     4     8    1
    12     4    18    1
    13     5     9    1
    14     5    19    1
    15     6     7    1
    16     6    13    1
    17     7     8    1
    18     7    20    1
    19     8    21    1
    20     8    22    1
    21     9    12    1
    22     9    15    1
    23     9    16    1
    24    10    14    1
    25    10    23    1
    26    10    24    1
    27    11    25    1
    28    11    26    1
    29    11    27    1
    30    12    14    1
    31    12    28    1
    32    12    29    1
    33    13    30    1
    34    13    31    1
    35    13    32    1
    36    14    33    1
    37    14    34    1
    38    15    35    1
    39    15    36    1
    40    15    37    1
    41    16    38    1
    42    16    39    1
    43    16    40    1
