@<TRIPOS>MOLECULE
IMPHY011263
 53 57 0 0 0
SMALL
GASTEIGER

@<TRIPOS>ATOM
      1 O           8.9752   -1.5825    0.0000 O.3     1  UNL1       -0.4911
      2 O           2.6079    1.1774    0.0000 O.3     1  UNL1       -0.4526
      3 O          10.7866   -0.5367    0.0000 O.3     1  UNL1       -0.4914
      4 O           2.6079    2.8539    0.0000 O.3     1  UNL1       -0.4526
      5 O           5.4056   -1.5470    0.0000 O.2     1  UNL1       -0.2976
      6 N           6.2435   -0.0259    0.0000 N.pl3   1  UNL1       -0.3244
      7 C           7.1415   -0.5536    0.0000 C.3     1  UNL1        0.0592
      8 C           8.0436   -0.0328    0.0000 C.ar    1  UNL1        0.0263
      9 C           6.2596    1.0156    0.0000 C.ar    1  UNL1        0.0457
     10 C           7.1256    1.5156    0.0000 C.ar    1  UNL1        0.0042
     11 C           8.0356    1.0088    0.0000 C.ar    1  UNL1       -0.0074
     12 C           7.1377   -1.5536    0.0000 C.3     1  UNL1        0.0284
     13 C           5.3935    1.5156    0.0000 C.ar    1  UNL1        0.0074
     14 C           8.9790   -0.5825    0.0000 C.ar    1  UNL1        0.1670
     15 C           5.3935    2.5156    0.0000 C.ar    1  UNL1       -0.0124
     16 C           5.3717   -0.5158    0.0000 C.3     1  UNL1        0.0013
     17 C           7.1256    2.5156    0.0000 C.ar    1  UNL1       -0.0517
     18 C           8.9624    1.5729    0.0000 C.ar    1  UNL1       -0.0500
     19 C           6.2596    3.0156    0.0000 C.ar    1  UNL1       -0.0532
     20 C           4.4996    0.9810    0.0000 C.ar    1  UNL1       -0.0066
     21 C           9.9187   -0.0401    0.0000 C.ar    1  UNL1        0.1619
     22 C           6.2697   -2.0503    0.0000 C.2     1  UNL1        0.1324
     23 C           9.9103    1.0449    0.0000 C.ar    1  UNL1       -0.0157
     24 C           4.4996    3.0503    0.0000 C.ar    1  UNL1       -0.0084
     25 C           3.5935    1.4948    0.0000 C.ar    1  UNL1        0.1669
     26 C           3.5935    2.5364    0.0000 C.ar    1  UNL1        0.1668
     27 C           6.2659   -3.0503    0.0000 C.3     1  UNL1       -0.0060
     28 C           2.0000    2.0156    0.0000 C.3     1  UNL1        0.2332
     29 C           9.8393   -2.0859    0.0000 C.3     1  UNL1        0.0790
     30 C          11.6507   -0.0334    0.0000 C.3     1  UNL1        0.0790
     31 H           6.6028   -0.8605    0.0000 H       1  UNL1        0.0555
     32 H           7.3475   -2.1370    0.0000 H       1  UNL1        0.0363
     33 H           7.7487   -1.4483    0.0000 H       1  UNL1        0.0363
     34 H           5.0680    0.0246    0.0000 H       1  UNL1        0.0428
     35 H           4.8313   -0.8196    0.0000 H       1  UNL1        0.0428
     36 H           5.6755   -1.0563    0.0000 H       1  UNL1        0.0428
     37 H           7.6625    2.8256    0.0000 H       1  UNL1        0.0624
     38 H           8.9505    2.1927    0.0000 H       1  UNL1        0.0625
     39 H           6.2596    3.6356    0.0000 H       1  UNL1        0.0624
     40 H           4.5068    0.3610    0.0000 H       1  UNL1        0.0662
     41 H          10.4436    1.3611    0.0000 H       1  UNL1        0.0655
     42 H           4.5068    3.6702    0.0000 H       1  UNL1        0.0661
     43 H           5.6459   -3.0479    0.0000 H       1  UNL1        0.0306
     44 H           6.2635   -3.6703    0.0000 H       1  UNL1        0.0306
     45 H           6.8859   -3.0527    0.0000 H       1  UNL1        0.0306
     46 H           1.5391    2.4303    0.0000 H       1  UNL1        0.1166
     47 H           1.5391    1.6009    0.0000 H       1  UNL1        0.1166
     48 H           9.5272   -2.6216    0.0000 H       1  UNL1        0.0660
     49 H          10.3750   -2.3979    0.0000 H       1  UNL1        0.0660
     50 H          10.1513   -1.5501    0.0000 H       1  UNL1        0.0660
     51 H          11.9628   -0.5691    0.0000 H       1  UNL1        0.0660
     52 H          12.1864    0.2787    0.0000 H       1  UNL1        0.0660
     53 H          11.3386    0.5024    0.0000 H       1  UNL1        0.0660
@<TRIPOS>BOND
     1     1    14    1
     2     1    29    1
     3     2    25    1
     4     2    28    1
     5     3    21    1
     6     3    30    1
     7     4    26    1
     8     4    28    1
     9     5    22    2
    10     6     7    1
    11     6     9    1
    12     6    16    1
    13     7     8    1
    14     7    12    1
    15     7    31    1
    16     8    11   ar
    17     8    14   ar
    18     9    10   ar
    19     9    13   ar
    20    10    11    1
    21    10    17   ar
    22    11    18   ar
    23    12    22    1
    24    12    32    1
    25    12    33    1
    26    13    15   ar
    27    13    20   ar
    28    14    21   ar
    29    15    19   ar
    30    15    24   ar
    31    16    34    1
    32    16    35    1
    33    16    36    1
    34    17    19   ar
    35    17    37    1
    36    18    23   ar
    37    18    38    1
    38    19    39    1
    39    20    25   ar
    40    20    40    1
    41    21    23   ar
    42    22    27    1
    43    23    41    1
    44    24    26   ar
    45    24    42    1
    46    25    26   ar
    47    27    43    1
    48    27    44    1
    49    27    45    1
    50    28    46    1
    51    28    47    1
    52    29    48    1
    53    29    49    1
    54    29    50    1
    55    30    51    1
    56    30    52    1
    57    30    53    1
