@<TRIPOS>MOLECULE
IMPHY012626
 38 38 0 0 0
SMALL
GASTEIGER

@<TRIPOS>ATOM
      1 O           2.5369    0.0000    0.0000 O.3     1  UNL1       -0.3920
      2 C           6.8671    0.5000    0.0000 C.3     1  UNL1       -0.0136
      3 C           7.7331   -0.0000    0.0000 C.3     1  UNL1       -0.0439
      4 C           6.0010   -0.0000    0.0000 C.2     1  UNL1       -0.0648
      5 C           7.7331   -1.0000    0.0000 C.3     1  UNL1       -0.0486
      6 C           6.0010   -1.0000    0.0000 C.2     1  UNL1       -0.0729
      7 C           6.8671   -1.5000    0.0000 C.3     1  UNL1       -0.0317
      8 C           5.1350    0.5000    0.0000 C.3     1  UNL1       -0.0287
      9 C           7.3671    1.3660    0.0000 C.3     1  UNL1       -0.0561
     10 C           6.3671    1.3660    0.0000 C.3     1  UNL1       -0.0561
     11 C           4.2690    0.0000    0.0000 C.3     1  UNL1       -0.0234
     12 C           5.1350   -1.5000    0.0000 C.3     1  UNL1       -0.0435
     13 C           3.4030    0.5000    0.0000 C.3     1  UNL1        0.0527
     14 C           3.4030    1.5000    0.0000 C.3     1  UNL1       -0.0389
     15 H           8.3437   -0.1077    0.0000 H       1  UNL1        0.0274
     16 H           7.9451    0.5826    0.0000 H       1  UNL1        0.0274
     17 H           7.9451   -1.5826    0.0000 H       1  UNL1        0.0269
     18 H           8.3437   -0.8923    0.0000 H       1  UNL1        0.0269
     19 H           6.4685   -1.9750    0.0000 H       1  UNL1        0.0310
     20 H           7.2656   -1.9750    0.0000 H       1  UNL1        0.0310
     21 H           5.5335    0.9749    0.0000 H       1  UNL1        0.0311
     22 H           4.7365    0.9749    0.0000 H       1  UNL1        0.0311
     23 H           7.9040    1.0560    0.0000 H       1  UNL1        0.0238
     24 H           7.6771    1.9030    0.0000 H       1  UNL1        0.0238
     25 H           6.8301    1.6760    0.0000 H       1  UNL1        0.0238
     26 H           6.9040    1.6760    0.0000 H       1  UNL1        0.0238
     27 H           6.0571    1.9030    0.0000 H       1  UNL1        0.0238
     28 H           5.8301    1.0560    0.0000 H       1  UNL1        0.0238
     29 H           3.8705   -0.4749    0.0000 H       1  UNL1        0.0293
     30 H           4.6675   -0.4749    0.0000 H       1  UNL1        0.0293
     31 H           4.8250   -0.9631    0.0000 H       1  UNL1        0.0274
     32 H           4.5981   -1.8100    0.0000 H       1  UNL1        0.0274
     33 H           5.4450   -2.0369    0.0000 H       1  UNL1        0.0274
     34 H           3.4030   -0.1200    0.0000 H       1  UNL1        0.0590
     35 H           4.0230    1.5000    0.0000 H       1  UNL1        0.0254
     36 H           3.4030    2.1200    0.0000 H       1  UNL1        0.0254
     37 H           2.7830    1.5000    0.0000 H       1  UNL1        0.0254
     38 H           2.0000    0.3100    0.0000 H       1  UNL1        0.2098
@<TRIPOS>BOND
     1     1    13    1
     2     1    38    1
     3     2     3    1
     4     2     4    1
     5     2     9    1
     6     2    10    1
     7     3     5    1
     8     3    15    1
     9     3    16    1
    10     4     6    2
    11     4     8    1
    12     5     7    1
    13     5    17    1
    14     5    18    1
    15     6     7    1
    16     6    12    1
    17     7    19    1
    18     7    20    1
    19     8    11    1
    20     8    21    1
    21     8    22    1
    22     9    23    1
    23     9    24    1
    24     9    25    1
    25    10    26    1
    26    10    27    1
    27    10    28    1
    28    11    13    1
    29    11    29    1
    30    11    30    1
    31    12    31    1
    32    12    32    1
    33    12    33    1
    34    13    14    1
    35    13    34    1
    36    14    35    1
    37    14    36    1
    38    14    37    1
