@<TRIPOS>MOLECULE
IMPHY001018
 37 41 0 0 0
SMALL
GASTEIGER

@<TRIPOS>ATOM
      1 O           2.0000   -0.6052    0.0000 O.3     1  UNL1       -0.3621
      2 O           4.5988   -2.1057    0.0000 O.3     1  UNL1       -0.3603
      3 O           4.2939    0.8410    0.0000 O.3     1  UNL1       -0.4606
      4 O           6.9519   -0.8873    0.0000 O.3     1  UNL1       -0.4534
      5 O           4.8237    2.6528    0.0000 O.2     1  UNL1       -0.2505
      6 O           6.8872   -2.6528    0.0000 O.2     1  UNL1       -0.2452
      7 C           2.8665   -0.1052    0.0000 C.3     1  UNL1        0.0992
      8 C           2.8665   -1.1052    0.0000 C.3     1  UNL1        0.1170
      9 C           3.7326   -1.6052    0.0000 C.3     1  UNL1        0.1187
     10 C           4.5986   -1.1052    0.0000 C.3     1  UNL1        0.1193
     11 C           3.7326    0.3948    0.0000 C.3     1  UNL1        0.0162
     12 C           4.5986   -0.1052    0.0000 C.3     1  UNL1        0.1130
     13 C           5.4646    0.3948    0.0000 C.3     1  UNL1        0.0496
     14 C           2.8665    0.8948    0.0000 C.3     1  UNL1       -0.0331
     15 C           6.3306   -0.1052    0.0000 C.3     1  UNL1        0.1293
     16 C           5.4646   -1.6052    0.0000 C.2     1  UNL1        0.0672
     17 C           5.7694    1.3410    0.0000 C.3     1  UNL1        0.0635
     18 C           6.3306   -1.1052    0.0000 C.2     1  UNL1       -0.0310
     19 C           5.0316    1.6746    0.0000 C.2     1  UNL1        0.3107
     20 C           6.4525   -1.7522    0.0000 C.2     1  UNL1        0.3381
     21 C           6.6345    1.8425    0.0000 C.3     1  UNL1       -0.0518
     22 H           2.4417   -1.8414    0.0000 H       1  UNL1        0.0652
     23 H           3.4225   -2.1421    0.0000 H       1  UNL1        0.0653
     24 H           5.1355   -0.7952    0.0000 H       1  UNL1        0.0676
     25 H           4.1311    0.8697    0.0000 H       1  UNL1        0.0330
     26 H           3.3340    0.8697    0.0000 H       1  UNL1        0.0330
     27 H           3.8625   -0.5302    0.0000 H       1  UNL1        0.0739
     28 H           6.2007    0.8198    0.0000 H       1  UNL1        0.0384
     29 H           3.4865    0.8948    0.0000 H       1  UNL1        0.0258
     30 H           2.8665    1.5148    0.0000 H       1  UNL1        0.0258
     31 H           2.2465    0.8948    0.0000 H       1  UNL1        0.0258
     32 H           6.7556    0.6309    0.0000 H       1  UNL1        0.0784
     33 H           5.7382    1.9602    0.0000 H       1  UNL1        0.0416
     34 H           6.8676   -1.4152    0.0000 H       1  UNL1        0.0614
     35 H           6.9454    1.3061    0.0000 H       1  UNL1        0.0238
     36 H           7.1709    2.1534    0.0000 H       1  UNL1        0.0238
     37 H           6.3236    2.3789    0.0000 H       1  UNL1        0.0238
@<TRIPOS>BOND
     1     1     7    1
     2     1     8    1
     3     9     2    1
     4    10     2    1
     5     3    12    1
     6     3    19    1
     7     4    15    1
     8     4    20    1
     9     5    19    2
    10     6    20    2
    11     7     8    1
    12     7    11    1
    13     7    14    1
    14     8     9    1
    15     8    22    1
    16     9    10    1
    17     9    23    1
    18    10    16    1
    19    10    24    1
    20    11    12    1
    21    11    25    1
    22    11    26    1
    23    12    13    1
    24    12    27    1
    25    13    15    1
    26    13    17    1
    27    13    28    1
    28    14    29    1
    29    14    30    1
    30    14    31    1
    31    15    18    1
    32    15    32    1
    33    16    18    2
    34    16    20    1
    35    17    19    1
    36    17    21    1
    37    17    33    1
    38    18    34    1
    39    21    35    1
    40    21    36    1
    41    21    37    1
