@<TRIPOS>MOLECULE
IMPHY017229
 14 14 0 0 0
SMALL
GASTEIGER

@<TRIPOS>ATOM
      1 O           4.7690   -0.6830    0.0000 O.3     1  UNL1       -0.3662
      2 O           2.5369    0.1830    0.0000 O.3     1  UNL1       -0.3924
      3 C           4.2690    0.1830    0.0000 C.3     1  UNL1        0.1079
      4 C           5.2690    0.1830    0.0000 C.3     1  UNL1        0.0847
      5 C           3.4030    0.6830    0.0000 C.3     1  UNL1        0.0728
      6 C           6.1350    0.6830    0.0000 C.3     1  UNL1       -0.0362
      7 H           3.8306   -0.2554    0.0000 H       1  UNL1        0.0645
      8 H           5.7074   -0.2554    0.0000 H       1  UNL1        0.0620
      9 H           3.8015    1.1580    0.0000 H       1  UNL1        0.0584
     10 H           3.0044    1.1580    0.0000 H       1  UNL1        0.0584
     11 H           6.4450    0.1461    0.0000 H       1  UNL1        0.0255
     12 H           6.6720    0.9930    0.0000 H       1  UNL1        0.0255
     13 H           5.8250    1.2200    0.0000 H       1  UNL1        0.0255
     14 H           2.0000    0.4930    0.0000 H       1  UNL1        0.2095
@<TRIPOS>BOND
     1     1     3    1
     2     1     4    1
     3     2     5    1
     4     2    14    1
     5     3     4    1
     6     3     5    1
     7     3     7    1
     8     4     6    1
     9     4     8    1
    10     5     9    1
    11     5    10    1
    12     6    11    1
    13     6    12    1
    14     6    13    1
