@<TRIPOS>MOLECULE
IMPHY007004
 37 36 0 0 0
SMALL
GASTEIGER

@<TRIPOS>ATOM
      1 N           6.0010    0.0600    0.0000 N.3     1  UNL1       -0.3159
      2 N           9.4651    0.0600    0.0000 N.3     1  UNL1       -0.3159
      3 N          12.9292    0.0600    0.0000 N.3     1  UNL1       -0.3299
      4 N           2.5369    0.0600    0.0000 N.3     1  UNL1       -0.3299
      5 C           7.7331    0.0600    0.0000 C.3     1  UNL1       -0.0278
      6 C           8.5991    0.5600    0.0000 C.3     1  UNL1       -0.0030
      7 C           6.8671    0.5600    0.0000 C.3     1  UNL1       -0.0030
      8 C          10.3312    0.5600    0.0000 C.3     1  UNL1       -0.0030
      9 C           5.1350    0.5600    0.0000 C.3     1  UNL1       -0.0030
     10 C          11.1972    0.0600    0.0000 C.3     1  UNL1       -0.0281
     11 C           4.2690    0.0600    0.0000 C.3     1  UNL1       -0.0281
     12 C          12.0632    0.5600    0.0000 C.3     1  UNL1       -0.0058
     13 C           3.4030    0.5600    0.0000 C.3     1  UNL1       -0.0058
     14 H           7.3346   -0.4149    0.0000 H       1  UNL1        0.0290
     15 H           8.1316   -0.4149    0.0000 H       1  UNL1        0.0290
     16 H           8.9976    1.0350    0.0000 H       1  UNL1        0.0424
     17 H           8.2006    1.0350    0.0000 H       1  UNL1        0.0424
     18 H           7.2656    1.0350    0.0000 H       1  UNL1        0.0424
     19 H           6.4685    1.0350    0.0000 H       1  UNL1        0.0424
     20 H           5.5335    1.0350    0.0000 H       1  UNL1        0.0424
     21 H           4.7365    1.0350    0.0000 H       1  UNL1        0.0424
     22 H          10.7297    1.0350    0.0000 H       1  UNL1        0.0424
     23 H           9.9326    1.0350    0.0000 H       1  UNL1        0.0424
     24 H           9.4651   -0.5600    0.0000 H       1  UNL1        0.1219
     25 H           6.0010   -0.5600    0.0000 H       1  UNL1        0.1219
     26 H          10.7987   -0.4149    0.0000 H       1  UNL1        0.0290
     27 H          11.5957   -0.4149    0.0000 H       1  UNL1        0.0290
     28 H           3.8705   -0.4149    0.0000 H       1  UNL1        0.0290
     29 H           4.6675   -0.4149    0.0000 H       1  UNL1        0.0290
     30 H          12.4617    1.0350    0.0000 H       1  UNL1        0.0422
     31 H          11.6647    1.0350    0.0000 H       1  UNL1        0.0422
     32 H           3.8015    1.0350    0.0000 H       1  UNL1        0.0422
     33 H           3.0044    1.0350    0.0000 H       1  UNL1        0.0422
     34 H           2.0000    0.3700    0.0000 H       1  UNL1        0.1182
     35 H           2.5369   -0.5600    0.0000 H       1  UNL1        0.1182
     36 H          13.4662    0.3700    0.0000 H       1  UNL1        0.1182
     37 H          12.9292   -0.5600    0.0000 H       1  UNL1        0.1182
@<TRIPOS>BOND
     1     1     7    1
     2     1     9    1
     3     1    25    1
     4     2     6    1
     5     2     8    1
     6     2    24    1
     7     3    12    1
     8     3    36    1
     9     3    37    1
    10     4    13    1
    11     4    34    1
    12     4    35    1
    13     5     6    1
    14     5     7    1
    15     5    14    1
    16     5    15    1
    17     6    16    1
    18     6    17    1
    19     7    18    1
    20     7    19    1
    21     8    10    1
    22     8    22    1
    23     8    23    1
    24     9    11    1
    25     9    20    1
    26     9    21    1
    27    10    12    1
    28    10    26    1
    29    10    27    1
    30    11    13    1
    31    11    28    1
    32    11    29    1
    33    12    30    1
    34    12    31    1
    35    13    32    1
    36    13    33    1
