@<TRIPOS>MOLECULE
IMPHY010534
 49 52 0 0 0
SMALL
GASTEIGER

@<TRIPOS>ATOM
      1 O           5.5103    1.4285    0.0000 O.3     1  UNL1       -0.5029
      2 O           7.2762    2.4663    0.0000 O.3     1  UNL1       -0.4914
      3 O           2.8680   -0.0788    0.0000 O.3     1  UNL1       -0.4914
      4 O           2.8680   -2.1271    0.0000 O.3     1  UNL1       -0.5033
      5 N           8.1223   -2.0999    0.0000 N.4     1  UNL1        0.2449
      6 C           7.2641   -1.6030    0.0000 C.3     1  UNL1        0.0113
      7 C           8.9878   -1.6157    0.0000 C.3     1  UNL1       -0.0259
      8 C           7.2641   -0.6030    0.0000 C.ar    1  UNL1        0.0153
      9 C           6.3981   -2.1030    0.0000 C.3     1  UNL1        0.0207
     10 C           9.0134   -0.6244    0.0000 C.3     1  UNL1        0.0134
     11 C           8.1741   -0.0961    0.0000 C.ar    1  UNL1       -0.0296
     12 C           8.6159   -2.9696    0.0000 C.3     1  UNL1       -0.0409
     13 C           7.6159   -2.9622    0.0000 C.3     1  UNL1       -0.0409
     14 C           6.3981   -0.1030    0.0000 C.ar    1  UNL1        0.0363
     15 C           5.5320   -1.6030    0.0000 C.ar    1  UNL1       -0.0302
     16 C           5.5320   -0.6030    0.0000 C.ar    1  UNL1       -0.0067
     17 C           8.1821    0.9455    0.0000 C.ar    1  UNL1       -0.0125
     18 C           6.3820    0.9385    0.0000 C.ar    1  UNL1        0.1668
     19 C           7.2800    1.4663    0.0000 C.ar    1  UNL1        0.1622
     20 C           4.6381   -2.1376    0.0000 C.ar    1  UNL1       -0.0126
     21 C           4.6381   -0.0683    0.0000 C.ar    1  UNL1       -0.0082
     22 C           3.7320   -1.6238    0.0000 C.ar    1  UNL1        0.1587
     23 C           3.7320   -0.5822    0.0000 C.ar    1  UNL1        0.1619
     24 C           8.1403    2.9696    0.0000 C.3     1  UNL1        0.0790
     25 C           2.0000   -0.5755    0.0000 C.3     1  UNL1        0.0790
     26 H           7.2636   -2.4530    0.0000 H       1  UNL1        0.0908
     27 H           9.1895   -2.2020    0.0000 H       1  UNL1        0.0818
     28 H           9.6006   -1.5214    0.0000 H       1  UNL1        0.0818
     29 H           5.9995   -2.5779    0.0000 H       1  UNL1        0.0372
     30 H           6.7966   -2.5779    0.0000 H       1  UNL1        0.0372
     31 H           9.6205   -0.7502    0.0000 H       1  UNL1        0.0365
     32 H           9.2452   -0.0493    0.0000 H       1  UNL1        0.0365
     33 H           8.0767   -3.2756    0.0000 H       1  UNL1        0.0778
     34 H           7.0813   -2.6482    0.0000 H       1  UNL1        0.0778
     35 H           7.3020   -3.4968    0.0000 H       1  UNL1        0.0778
     36 H           8.1506   -3.2762    0.0000 H       1  UNL1        0.0778
     37 H           8.9219   -3.5088    0.0000 H       1  UNL1        0.0778
     38 H           9.1551   -2.6636    0.0000 H       1  UNL1        0.0778
     39 H           8.7203    1.2534    0.0000 H       1  UNL1        0.0658
     40 H           4.6453   -2.7576    0.0000 H       1  UNL1        0.0658
     41 H           4.6453    0.5516    0.0000 H       1  UNL1        0.0661
     42 H           5.5031    2.0484    0.0000 H       1  UNL1        0.2923
     43 H           2.8703   -2.7471    0.0000 H       1  UNL1        0.2923
     44 H           8.4523    2.4339    0.0000 H       1  UNL1        0.0660
     45 H           8.6760    3.2817    0.0000 H       1  UNL1        0.0660
     46 H           7.8282    3.5054    0.0000 H       1  UNL1        0.0660
     47 H           1.6921   -0.0374    0.0000 H       1  UNL1        0.0660
     48 H           1.4619   -0.8834    0.0000 H       1  UNL1        0.0660
     49 H           2.3079   -1.1136    0.0000 H       1  UNL1        0.0660
@<TRIPOS>UNITY_ATOM_ATTR
5 1
charge 1
@<TRIPOS>BOND
     1     1    18    1
     2     1    42    1
     3     2    19    1
     4     2    24    1
     5     3    23    1
     6     3    25    1
     7     4    22    1
     8     4    43    1
     9     5     6    1
    10     5     7    1
    11     5    12    1
    12     5    13    1
    13     6     8    1
    14     6     9    1
    15     6    26    1
    16     7    10    1
    17     7    27    1
    18     7    28    1
    19     8    11   ar
    20     8    14   ar
    21     9    15    1
    22     9    29    1
    23     9    30    1
    24    10    11    1
    25    10    31    1
    26    10    32    1
    27    11    17   ar
    28    12    33    1
    29    12    37    1
    30    12    38    1
    31    13    34    1
    32    13    35    1
    33    13    36    1
    34    14    16    1
    35    14    18   ar
    36    15    16   ar
    37    15    20   ar
    38    16    21   ar
    39    17    19   ar
    40    17    39    1
    41    18    19   ar
    42    20    22   ar
    43    20    40    1
    44    21    23   ar
    45    21    41    1
    46    22    23   ar
    47    24    44    1
    48    24    45    1
    49    24    46    1
    50    25    47    1
    51    25    48    1
    52    25    49    1
