@<TRIPOS>MOLECULE
IMPHY013589
 51 54 0 0 0
SMALL
GASTEIGER

@<TRIPOS>ATOM
      1 O           4.6559    2.6176    0.0000 O.3     1  UNL1       -0.3871
      2 O           2.0196    0.1207    0.0000 O.2     1  UNL1       -0.2868
      3 O           2.0038   -1.9276    0.0000 O.2     1  UNL1       -0.4919
      4 O           6.4043   -1.4170    0.0000 O.3     1  UNL1       -0.4911
      5 O           8.1860   -0.4066    0.0000 O.3     1  UNL1       -0.4914
      6 N           3.8827    1.6125    0.0000 N.3     1  UNL1       -0.2922
      7 C           4.6559   -0.3825    0.0000 C.3     1  UNL1        0.0301
      8 C           3.7898    0.1175    0.0000 C.3     1  UNL1        0.1006
      9 C           5.9041    0.4454    0.0000 C.3     1  UNL1       -0.0280
     10 C           3.7898    1.1176    0.0000 C.3     1  UNL1        0.0041
     11 C           5.3628    1.8420    0.0000 C.3     1  UNL1        0.0004
     12 C           5.5219    0.1175    0.0000 C.ar    1  UNL1        0.0122
     13 C           4.6719   -1.4240    0.0000 C.3     1  UNL1       -0.0190
     14 C           4.6559    1.6176    0.0000 C.3     1  UNL1        0.0827
     15 C           2.8798   -0.3893    0.0000 C.2     1  UNL1        0.2180
     16 C           5.5219    1.1176    0.0000 C.ar    1  UNL1       -0.0116
     17 C           3.7739   -1.9517    0.0000 C.2     1  UNL1       -0.0378
     18 C           2.8718   -1.4309    0.0000 C.2     1  UNL1        0.1603
     19 C           3.1439    2.2864    0.0000 C.3     1  UNL1       -0.0118
     20 C           6.4158   -0.4171    0.0000 C.ar    1  UNL1        0.1656
     21 C           6.4158    1.6522    0.0000 C.ar    1  UNL1       -0.0522
     22 C           7.3219    0.0967    0.0000 C.ar    1  UNL1        0.1618
     23 C           7.3219    1.1384    0.0000 C.ar    1  UNL1       -0.0159
     24 C           2.0000   -2.9276    0.0000 C.3     1  UNL1        0.0789
     25 C           7.2644   -1.9270    0.0000 C.3     1  UNL1        0.0790
     26 C           9.0539    0.0901    0.0000 C.3     1  UNL1        0.0790
     27 H           6.2087   -0.0946    0.0000 H       1  UNL1        0.0287
     28 H           6.4646    0.7105    0.0000 H       1  UNL1        0.0287
     29 H           3.5778    1.7002    0.0000 H       1  UNL1        0.0316
     30 H           3.1792    1.0099    0.0000 H       1  UNL1        0.0316
     31 H           5.9555    2.0239    0.0000 H       1  UNL1        0.0427
     32 H           5.2240    2.4463    0.0000 H       1  UNL1        0.0427
     33 H           4.8900   -2.0044    0.0000 H       1  UNL1        0.0318
     34 H           5.2811   -1.3085    0.0000 H       1  UNL1        0.0318
     35 H           4.1189    1.9276    0.0000 H       1  UNL1        0.0644
     36 H           3.7763   -2.5717    0.0000 H       1  UNL1        0.0610
     37 H           3.5617    2.7444    0.0000 H       1  UNL1        0.0391
     38 H           2.6858    2.7042    0.0000 H       1  UNL1        0.0391
     39 H           2.7260    1.8283    0.0000 H       1  UNL1        0.0391
     40 H           6.4087    2.2722    0.0000 H       1  UNL1        0.0622
     41 H           5.1928    2.9276    0.0000 H       1  UNL1        0.2102
     42 H           7.8576    1.4504    0.0000 H       1  UNL1        0.0655
     43 H           1.3800   -2.9252    0.0000 H       1  UNL1        0.0660
     44 H           1.9976   -3.5475    0.0000 H       1  UNL1        0.0660
     45 H           2.6200   -2.9299    0.0000 H       1  UNL1        0.0660
     46 H           6.9483   -2.4603    0.0000 H       1  UNL1        0.0660
     47 H           7.7978   -2.2432    0.0000 H       1  UNL1        0.0660
     48 H           7.5806   -1.3937    0.0000 H       1  UNL1        0.0660
     49 H           9.3619   -0.4481    0.0000 H       1  UNL1        0.0660
     50 H           9.5921    0.3980    0.0000 H       1  UNL1        0.0660
     51 H           8.7460    0.6282    0.0000 H       1  UNL1        0.0660
@<TRIPOS>BOND
     1    14     1    1
     2     1    41    1
     3     2    15    2
     4     3    18    1
     5     3    24    1
     6     4    20    1
     7     4    25    1
     8     5    22    1
     9     5    26    1
    10     8     6    1
    11     6    11    1
    12     6    19    1
    13     7     8    1
    14     7     9    1
    15     7    12    1
    16     7    13    1
    17     8    10    1
    18     8    15    1
    19     9    11    1
    20     9    27    1
    21     9    28    1
    22    10    14    1
    23    10    29    1
    24    10    30    1
    25    11    31    1
    26    11    32    1
    27    12    16   ar
    28    12    20   ar
    29    13    17    1
    30    13    33    1
    31    13    34    1
    32    14    16    1
    33    14    35    1
    34    15    18    1
    35    16    21   ar
    36    17    18    2
    37    17    36    1
    38    19    37    1
    39    19    38    1
    40    19    39    1
    41    20    22   ar
    42    21    23   ar
    43    21    40    1
    44    22    23   ar
    45    23    42    1
    46    24    43    1
    47    24    44    1
    48    24    45    1
    49    25    46    1
    50    25    47    1
    51    25    48    1
    52    26    49    1
    53    26    50    1
    54    26    51    1
