@<TRIPOS>MOLECULE
IMPHY010537
 65 69 0 0 0
SMALL
GASTEIGER

@<TRIPOS>ATOM
      1 O           5.0519   -2.8509    0.0000 O.3     1  UNL1       -0.4570
      2 O           6.3194   -0.8962    0.0000 O.3     1  UNL1       -0.3733
      3 O           7.0625   -1.5654    0.0000 O.3     1  UNL1       -0.4658
      4 O           6.8547   -2.5434    0.0000 O.2     1  UNL1       -0.2474
      5 O           6.4218    3.5941    0.0000 O.3     1  UNL1       -0.4951
      6 O           6.3391   -4.0099    0.0000 O.2     1  UNL1       -0.2512
      7 N           2.6254   -0.6222    0.0000 N.3     1  UNL1       -0.2939
      8 N           5.7049    0.3784    0.0000 N.pl3   1  UNL1       -0.3252
      9 C           4.1652   -0.1219    0.0000 C.3     1  UNL1        0.0369
     10 C           3.5397   -0.8166    0.0000 C.3     1  UNL1        0.0348
     11 C           3.8286   -1.7055    0.0000 C.3     1  UNL1        0.0453
     12 C           5.0795   -0.3163    0.0000 C.3     1  UNL1        0.0772
     13 C           5.3683   -1.2052    0.0000 C.3     1  UNL1        0.2195
     14 C           3.7801    0.9137    0.0000 C.3     1  UNL1       -0.0272
     15 C           4.7429   -1.8999    0.0000 C.3     1  UNL1        0.1542
     16 C           4.5018    1.4617    0.0000 C.ar    1  UNL1       -0.0165
     17 C           2.3366    0.2667    0.0000 C.3     1  UNL1        0.0005
     18 C           4.1376   -2.6566    0.0000 C.3     1  UNL1       -0.0418
     19 C           5.4161    1.2673    0.0000 C.ar    1  UNL1        0.0372
     20 C           3.2031   -2.4002    0.0000 C.2     1  UNL1       -0.0755
     21 C           2.0000   -1.3168    0.0000 C.3     1  UNL1        0.0175
     22 C           2.2888   -2.2058    0.0000 C.2     1  UNL1       -0.0733
     23 C           6.1115   -1.8744    0.0000 C.2     1  UNL1        0.3446
     24 C           4.2129    2.3506    0.0000 C.ar    1  UNL1       -0.0527
     25 C           6.6560    0.6874    0.0000 C.3     1  UNL1        0.0011
     26 C           3.4685   -3.3997    0.0000 C.3     1  UNL1       -0.0643
     27 C           6.0415    1.9620    0.0000 C.ar    1  UNL1        0.0014
     28 C           4.8384    3.0453    0.0000 C.ar    1  UNL1       -0.0196
     29 C           5.7527    2.8509    0.0000 C.ar    1  UNL1        0.1219
     30 C           5.3609   -3.8020    0.0000 C.2     1  UNL1        0.3043
     31 C           4.6918   -4.5451    0.0000 C.3     1  UNL1        0.0332
     32 C           7.8057   -2.2345    0.0000 C.3     1  UNL1        0.0818
     33 C           6.1128    4.5451    0.0000 C.3     1  UNL1        0.0788
     34 H           3.2771   -0.0082    0.0000 H       1  UNL1        0.0482
     35 H           5.9109   -0.4930    0.0000 H       1  UNL1        0.0544
     36 H           4.3564    1.1424    0.0000 H       1  UNL1        0.0287
     37 H           3.5389    1.4848    0.0000 H       1  UNL1        0.0287
     38 H           5.3493   -2.0288    0.0000 H       1  UNL1        0.0779
     39 H           2.1034    0.8412    0.0000 H       1  UNL1        0.0427
     40 H           1.7542    0.0542    0.0000 H       1  UNL1        0.0427
     41 H           4.5193   -3.1452    0.0000 H       1  UNL1        0.0273
     42 H           4.6850   -2.3655    0.0000 H       1  UNL1        0.0273
     43 H           3.3947   -2.9898    0.0000 H       1  UNL1        0.0577
     44 H           1.6183   -0.8283    0.0000 H       1  UNL1        0.0470
     45 H           1.4526   -1.6079    0.0000 H       1  UNL1        0.0470
     46 H           1.8740   -2.6666    0.0000 H       1  UNL1        0.0582
     47 H           3.6065    2.4795    0.0000 H       1  UNL1        0.0622
     48 H           6.7342   -0.4355    0.0000 H       1  UNL1        0.2111
     49 H           6.8476    0.0977    0.0000 H       1  UNL1        0.0428
     50 H           7.2456    0.8790    0.0000 H       1  UNL1        0.0428
     51 H           6.4644    1.2770    0.0000 H       1  UNL1        0.0428
     52 H           3.0077   -2.9849    0.0000 H       1  UNL1        0.0230
     53 H           3.0536   -3.8605    0.0000 H       1  UNL1        0.0230
     54 H           3.9292   -3.8146    0.0000 H       1  UNL1        0.0230
     55 H           6.6480    1.8330    0.0000 H       1  UNL1        0.0673
     56 H           4.6468    3.6349    0.0000 H       1  UNL1        0.0654
     57 H           4.2310   -4.1303    0.0000 H       1  UNL1        0.0342
     58 H           4.2769   -5.0059    0.0000 H       1  UNL1        0.0342
     59 H           5.1525   -4.9600    0.0000 H       1  UNL1        0.0342
     60 H           7.3908   -2.6952    0.0000 H       1  UNL1        0.0661
     61 H           8.2664   -2.6493    0.0000 H       1  UNL1        0.0661
     62 H           8.2205   -1.7737    0.0000 H       1  UNL1        0.0661
     63 H           6.7025    4.7367    0.0000 H       1  UNL1        0.0660
     64 H           5.9212    5.1348    0.0000 H       1  UNL1        0.0660
     65 H           5.5232    4.3535    0.0000 H       1  UNL1        0.0660
@<TRIPOS>BOND
     1    15     1    1
     2     1    30    1
     3    13     2    1
     4     2    48    1
     5     3    23    1
     6     3    32    1
     7     4    23    2
     8     5    29    1
     9     5    33    1
    10     6    30    2
    11     7    10    1
    12     7    17    1
    13     7    21    1
    14     8    12    1
    15     8    19    1
    16     8    25    1
    17     9    10    1
    18     9    12    1
    19     9    14    1
    20     9    16    1
    21    10    11    1
    22    10    34    1
    23    11    15    1
    24    11    18    1
    25    11    20    1
    26    12    13    1
    27    12    35    1
    28    13    15    1
    29    13    23    1
    30    14    17    1
    31    14    36    1
    32    14    37    1
    33    15    38    1
    34    16    19   ar
    35    16    24   ar
    36    17    39    1
    37    17    40    1
    38    18    26    1
    39    18    41    1
    40    18    42    1
    41    19    27   ar
    42    20    22    2
    43    20    43    1
    44    21    22    1
    45    21    44    1
    46    21    45    1
    47    22    46    1
    48    24    28   ar
    49    24    47    1
    50    25    49    1
    51    25    50    1
    52    25    51    1
    53    26    52    1
    54    26    53    1
    55    26    54    1
    56    27    29   ar
    57    27    55    1
    58    28    29   ar
    59    28    56    1
    60    30    31    1
    61    31    57    1
    62    31    58    1
    63    31    59    1
    64    32    60    1
    65    32    61    1
    66    32    62    1
    67    33    63    1
    68    33    64    1
    69    33    65    1
