@<TRIPOS>MOLECULE
IMPHY005593
 47 50 0 0 0
SMALL
GASTEIGER

@<TRIPOS>ATOM
      1 O           4.8694   -1.7436    0.0000 O.3     1  UNL1       -0.4538
      2 O           3.4418   -1.1622    0.0000 O.3     1  UNL1       -0.3800
      3 O           6.4513   -2.5518    0.0000 O.2     1  UNL1       -0.2452
      4 O           7.3327    0.4876    0.0000 O.2     1  UNL1       -0.4570
      5 O           8.5950    1.7455    0.0000 O.3     1  UNL1       -0.4177
      6 O          10.1841    2.5518    0.0000 O.2     1  UNL1       -0.2452
      7 C           3.7508   -0.2112    0.0000 C.3     1  UNL1        0.1296
      8 C           2.7354   -0.4434    0.0000 C.3     1  UNL1        0.0013
      9 C           4.5598   -0.7990    0.0000 C.3     1  UNL1        0.1466
     10 C           4.0598    0.7399    0.0000 C.2     1  UNL1       -0.0376
     11 C           5.3688   -0.2112    0.0000 C.3     1  UNL1        0.0524
     12 C           2.0324    0.3253    0.0000 C.3     1  UNL1       -0.0445
     13 C           3.3748    1.5246    0.0000 C.3     1  UNL1       -0.0289
     14 C           2.3543    1.3159    0.0000 C.3     1  UNL1       -0.0487
     15 C           5.0598    0.7399    0.0000 C.2     1  UNL1       -0.0706
     16 C           2.0000   -1.1211    0.0000 C.3     1  UNL1       -0.0568
     17 C           2.6076   -1.4352    0.0000 C.3     1  UNL1       -0.0568
     18 C           6.1715   -0.7976    0.0000 C.2     1  UNL1        0.0812
     19 C           5.8635   -1.7427    0.0000 C.2     1  UNL1        0.3392
     20 C           7.1231   -0.4902    0.0000 C.2     1  UNL1        0.1000
     21 C           8.2843    0.7950    0.0000 C.3     1  UNL1        0.2661
     22 C           9.0923    0.2058    0.0000 C.2     1  UNL1        0.0058
     23 C           9.9023    0.7922    0.0000 C.2     1  UNL1        0.0366
     24 C           9.5950    1.7438    0.0000 C.2     1  UNL1        0.3379
     25 C          10.8528    0.4815    0.0000 C.3     1  UNL1       -0.0330
     26 H           3.8728   -1.2995    0.0000 H       1  UNL1        0.0776
     27 H           6.0571    0.2875    0.0000 H       1  UNL1        0.0432
     28 H           1.4842    0.6149    0.0000 H       1  UNL1        0.0272
     29 H           1.6532   -0.1653    0.0000 H       1  UNL1        0.0272
     30 H           3.9048    1.8464    0.0000 H       1  UNL1        0.0311
     31 H           3.1485    2.1018    0.0000 H       1  UNL1        0.0311
     32 H           2.3359    1.9356    0.0000 H       1  UNL1        0.0268
     33 H           1.7406    1.4038    0.0000 H       1  UNL1        0.0268
     34 H           5.4242    1.2415    0.0000 H       1  UNL1        0.0580
     35 H           1.5798   -0.6652    0.0000 H       1  UNL1        0.0236
     36 H           1.5441   -1.5413    0.0000 H       1  UNL1        0.0236
     37 H           2.4202   -1.5770    0.0000 H       1  UNL1        0.0236
     38 H           1.9927   -1.3561    0.0000 H       1  UNL1        0.0236
     39 H           2.5285   -2.0502    0.0000 H       1  UNL1        0.0236
     40 H           3.2226   -1.5144    0.0000 H       1  UNL1        0.0236
     41 H           3.8566   -1.6230    0.0000 H       1  UNL1        0.2108
     42 H           7.5831   -0.9059    0.0000 H       1  UNL1        0.1030
     43 H           8.1862    0.1828    0.0000 H       1  UNL1        0.1257
     44 H           9.0912   -0.4142    0.0000 H       1  UNL1        0.0650
     45 H          10.6602   -0.1078    0.0000 H       1  UNL1        0.0280
     46 H          11.4422    0.2889    0.0000 H       1  UNL1        0.0280
     47 H          11.0455    1.0708    0.0000 H       1  UNL1        0.0280
@<TRIPOS>BOND
     1     1     9    1
     2     1    19    1
     3     2     7    1
     4     2    41    1
     5     3    19    2
     6     4    20    1
     7    21     4    1
     8     5    21    1
     9     5    24    1
    10     6    24    2
    11     7     8    1
    12     7     9    1
    13     7    10    1
    14     8    12    1
    15     8    16    1
    16     8    17    1
    17     9    11    1
    18     9    26    1
    19    10    13    1
    20    10    15    2
    21    11    15    1
    22    11    18    1
    23    11    27    1
    24    12    14    1
    25    12    28    1
    26    12    29    1
    27    13    14    1
    28    13    30    1
    29    13    31    1
    30    14    32    1
    31    14    33    1
    32    15    34    1
    33    16    35    1
    34    16    36    1
    35    16    37    1
    36    17    38    1
    37    17    39    1
    38    17    40    1
    39    18    19    1
    40    18    20    2
    41    20    42    1
    42    21    22    1
    43    21    43    1
    44    22    23    2
    45    22    44    1
    46    23    24    1
    47    23    25    1
    48    25    45    1
    49    25    46    1
    50    25    47    1
