@<TRIPOS>MOLECULE
IMPHY002422
 156 164 0 0 0
SMALL
GASTEIGER

@<TRIPOS>ATOM
      1 O           9.7456   -3.2489    0.0000 O.3     1  UNL1       -0.3449
      2 O          11.4994    6.0305    0.0000 O.3     1  UNL1       -0.4318
      3 O          12.3827    4.5406    0.0000 O.2     1  UNL1       -0.2501
      4 O           8.0135   -3.2489    0.0000 O.3     1  UNL1       -0.3315
      5 O           9.7456   -5.2489    0.0000 O.3     1  UNL1       -0.3841
      6 O          13.2313    6.0505    0.0000 O.3     1  UNL1       -0.3312
      7 O           8.0135   -6.2489    0.0000 O.3     1  UNL1       -0.3400
      8 O           6.2815   -5.2489    0.0000 O.3     1  UNL1       -0.3396
      9 O          11.4763    8.0304    0.0000 O.3     1  UNL1       -0.3829
     10 O          13.1966    9.0503    0.0000 O.3     1  UNL1       -0.3864
     11 O          14.9401    8.0704    0.0000 O.3     1  UNL1       -0.3865
     12 O           6.2815   -2.2489    0.0000 O.3     1  UNL1       -0.4788
     13 O           9.7931   -6.3422    0.0000 O.3     1  UNL1       -0.3405
     14 O           5.4155   -3.7489    0.0000 O.2     1  UNL1       -0.2480
     15 O           4.6412   -5.9453    0.0000 O.3     1  UNL1       -0.3405
     16 O          15.8235    6.5805    0.0000 O.3     1  UNL1       -0.3924
     17 O           8.2410   -8.4126    0.0000 O.3     1  UNL1       -0.3841
     18 O           6.8078   -7.3599    0.0000 O.3     1  UNL1       -0.3841
     19 O          10.3690   -8.8649    0.0000 O.3     1  UNL1       -0.3864
     20 O           4.9628   -8.5128    0.0000 O.3     1  UNL1       -0.3864
     21 O          12.0445   -7.7898    0.0000 O.3     1  UNL1       -0.3924
     22 O           2.6016   -6.3950    0.0000 O.3     1  UNL1       -0.3924
     23 C          10.6466    1.4513    0.0000 C.3     1  UNL1       -0.0194
     24 C           9.7826    0.9479    0.0000 C.3     1  UNL1       -0.0257
     25 C           9.7705   -0.0936    0.0000 C.3     1  UNL1       -0.0250
     26 C          10.6428    2.4513    0.0000 C.3     1  UNL1       -0.0051
     27 C          10.6706   -0.6179    0.0000 C.3     1  UNL1       -0.0278
     28 C          11.5586    0.9479    0.0000 C.3     1  UNL1       -0.0463
     29 C          10.6831   -1.7028    0.0000 C.3     1  UNL1       -0.0052
     30 C          11.5706   -0.0936    0.0000 C.3     1  UNL1       -0.0486
     31 C           9.7748    2.9479    0.0000 C.2     1  UNL1       -0.0629
     32 C           9.7548    3.9894    0.0000 C.3     1  UNL1       -0.0031
     33 C           8.9146    1.4446    0.0000 C.3     1  UNL1       -0.0306
     34 C           8.8206   -0.6179    0.0000 C.3     1  UNL1       -0.0447
     35 C          11.5508    2.9616    0.0000 C.3     1  UNL1       -0.0424
     36 C          10.6508    4.5206    0.0000 C.3     1  UNL1        0.0744
     37 C          11.6308    1.6287    0.0000 C.3     1  UNL1       -0.0585
     38 C           9.7456   -2.2489    0.0000 C.3     1  UNL1        0.0672
     39 C          11.5549    4.0033    0.0000 C.3     1  UNL1       -0.0359
     40 C           8.9064    0.4097    0.0000 C.3     1  UNL1       -0.0590
     41 C           8.9108    2.4446    0.0000 C.2     1  UNL1       -0.0836
     42 C           8.8080   -1.7028    0.0000 C.3     1  UNL1       -0.0255
     43 C          11.6283    2.2814    0.0000 C.3     1  UNL1       -0.0553
     44 C           8.8008    4.5063    0.0000 C.3     1  UNL1       -0.0403
     45 C          10.6550    5.6056    0.0000 C.3     1  UNL1       -0.0362
     46 C           8.7799    5.5911    0.0000 C.3     1  UNL1       -0.0343
     47 C          11.6831   -1.6951    0.0000 C.3     1  UNL1       -0.0572
     48 C          11.1898   -2.5650    0.0000 C.3     1  UNL1       -0.0572
     49 C           9.7132    6.1444    0.0000 C.3     1  UNL1       -0.0468
     50 C          11.5110    5.0306    0.0000 C.2     1  UNL1        0.3161
     51 C           8.2666    6.4493    0.0000 C.3     1  UNL1       -0.0598
     52 C           7.7801    5.5757    0.0000 C.3     1  UNL1       -0.0598
     53 C           8.8796   -3.7489    0.0000 C.3     1  UNL1        0.1888
     54 C           8.8796   -4.7489    0.0000 C.3     1  UNL1        0.1345
     55 C          12.3596    6.5405    0.0000 C.3     1  UNL1        0.2337
     56 C           8.0135   -5.2489    0.0000 C.3     1  UNL1        0.1214
     57 C           7.1475   -3.7489    0.0000 C.3     1  UNL1        0.1863
     58 C           7.1475   -4.7489    0.0000 C.3     1  UNL1        0.1270
     59 C          12.3480    7.5404    0.0000 C.3     1  UNL1        0.1455
     60 C          13.2082    8.0504    0.0000 C.3     1  UNL1        0.1152
     61 C          14.0915    6.5605    0.0000 C.3     1  UNL1        0.1140
     62 C          14.0800    7.5604    0.0000 C.3     1  UNL1        0.1120
     63 C           6.2815   -3.2489    0.0000 C.2     1  UNL1        0.3367
     64 C           8.8796   -6.7489    0.0000 C.3     1  UNL1        0.1884
     65 C          14.9633    6.0706    0.0000 C.3     1  UNL1        0.0731
     66 C           5.6388   -6.0150    0.0000 C.3     1  UNL1        0.1885
     67 C           8.9841   -7.7435    0.0000 C.3     1  UNL1        0.1341
     68 C           5.8806   -6.9853    0.0000 C.3     1  UNL1        0.1341
     69 C           9.9622   -7.9514    0.0000 C.3     1  UNL1        0.1141
     70 C          10.4622   -7.0854    0.0000 C.3     1  UNL1        0.1131
     71 C           5.0326   -7.5152    0.0000 C.3     1  UNL1        0.1141
     72 C           4.2666   -6.8725    0.0000 C.3     1  UNL1        0.1131
     73 C          11.4568   -6.9808    0.0000 C.3     1  UNL1        0.0730
     74 C           3.2963   -7.1144    0.0000 C.3     1  UNL1        0.0730
     75 H          10.5170    0.5201    0.0000 H       1  UNL1        0.0315
     76 H          11.4100   -1.0372    0.0000 H       1  UNL1        0.0312
     77 H          12.1706    0.8489    0.0000 H       1  UNL1        0.0271
     78 H          11.7609    1.5340    0.0000 H       1  UNL1        0.0271
     79 H          11.7864   -0.6748    0.0000 H       1  UNL1        0.0268
     80 H          12.1802    0.0195    0.0000 H       1  UNL1        0.0268
     81 H           9.0287    3.5475    0.0000 H       1  UNL1        0.0357
     82 H           8.3036    1.5499    0.0000 H       1  UNL1        0.0310
     83 H           8.7048    0.8612    0.0000 H       1  UNL1        0.0310
     84 H           8.6183   -0.0318    0.0000 H       1  UNL1        0.0271
     85 H           8.2086   -0.7169    0.0000 H       1  UNL1        0.0271
     86 H          11.7576    2.3771    0.0000 H       1  UNL1        0.0274
     87 H          12.1621    3.0654    0.0000 H       1  UNL1        0.0274
     88 H          11.7408    1.0186    0.0000 H       1  UNL1        0.0235
     89 H          12.2409    1.7387    0.0000 H       1  UNL1        0.0235
     90 H          11.5208    2.2389    0.0000 H       1  UNL1        0.0235
     91 H          10.2831   -2.5579    0.0000 H       1  UNL1        0.0602
     92 H          12.1653    3.8948    0.0000 H       1  UNL1        0.0276
     93 H          11.7662    4.5861    0.0000 H       1  UNL1        0.0276
     94 H           9.2185    0.9455    0.0000 H       1  UNL1        0.0235
     95 H           8.3707    0.7218    0.0000 H       1  UNL1        0.0235
     96 H           8.5944   -0.1260    0.0000 H       1  UNL1        0.0235
     97 H           8.3726    2.7525    0.0000 H       1  UNL1        0.0572
     98 H           8.1985   -1.5897    0.0000 H       1  UNL1        0.0290
     99 H           8.5923   -2.2841    0.0000 H       1  UNL1        0.0290
    100 H          11.5230    1.6704    0.0000 H       1  UNL1        0.0238
    101 H          12.2393    2.1761    0.0000 H       1  UNL1        0.0238
    102 H          11.7336    2.8924    0.0000 H       1  UNL1        0.0238
    103 H           8.1881    4.6006    0.0000 H       1  UNL1        0.0276
    104 H           8.6031    3.9187    0.0000 H       1  UNL1        0.0276
    105 H          11.2654    5.4971    0.0000 H       1  UNL1        0.0276
    106 H          10.8663    6.1884    0.0000 H       1  UNL1        0.0276
    107 H          11.6879   -2.3151    0.0000 H       1  UNL1        0.0236
    108 H          12.3031   -1.6903    0.0000 H       1  UNL1        0.0236
    109 H          11.6783   -1.0751    0.0000 H       1  UNL1        0.0236
    110 H          10.6553   -2.8791    0.0000 H       1  UNL1        0.0236
    111 H          11.5039   -3.0995    0.0000 H       1  UNL1        0.0236
    112 H          11.7243   -2.2508    0.0000 H       1  UNL1        0.0236
    113 H          10.1087    6.6219    0.0000 H       1  UNL1        0.0271
    114 H           9.3104    6.6158    0.0000 H       1  UNL1        0.0271
    115 H           7.7705    6.1956    0.0000 H       1  UNL1        0.0235
    116 H           8.7987    6.7676    0.0000 H       1  UNL1        0.0235
    117 H           7.9484    6.9814    0.0000 H       1  UNL1        0.0235
    118 H           7.7346    6.1311    0.0000 H       1  UNL1        0.0235
    119 H           7.1601    5.5661    0.0000 H       1  UNL1        0.0235
    120 H           7.7896    4.9558    0.0000 H       1  UNL1        0.0235
    121 H           8.8796   -3.1289    0.0000 H       1  UNL1        0.0938
    122 H           9.4165   -4.4389    0.0000 H       1  UNL1        0.0671
    123 H          12.3667    5.9205    0.0000 H       1  UNL1        0.1085
    124 H           8.5505   -5.5589    0.0000 H       1  UNL1        0.0652
    125 H           7.1475   -3.1289    0.0000 H       1  UNL1        0.0742
    126 H           6.6106   -4.4389    0.0000 H       1  UNL1        0.0656
    127 H          12.3408    8.1604    0.0000 H       1  UNL1        0.0683
    128 H          10.2825   -4.9389    0.0000 H       1  UNL1        0.2101
    129 H          13.7415    8.3666    0.0000 H       1  UNL1        0.0648
    130 H          14.0987    5.9406    0.0000 H       1  UNL1        0.0647
    131 H          14.6204    7.2567    0.0000 H       1  UNL1        0.0647
    132 H          11.4691    8.6503    0.0000 H       1  UNL1        0.2102
    133 H           8.3596   -7.0866    0.0000 H       1  UNL1        0.0938
    134 H          14.5703    5.5910    0.0000 H       1  UNL1        0.0584
    135 H          15.3673    5.6002    0.0000 H       1  UNL1        0.0584
    136 H           6.2429   -6.1545    0.0000 H       1  UNL1        0.0938
    137 H          13.7300    9.3665    0.0000 H       1  UNL1        0.2100
    138 H           9.1446   -8.3423    0.0000 H       1  UNL1        0.0671
    139 H          14.9330    8.6904    0.0000 H       1  UNL1        0.2100
    140 H           5.9347   -7.6029    0.0000 H       1  UNL1        0.0671
    141 H           5.7446   -1.9389    0.0000 H       1  UNL1        0.2951
    142 H           9.5721   -8.4332    0.0000 H       1  UNL1        0.0648
    143 H          10.6844   -6.5065    0.0000 H       1  UNL1        0.0647
    144 H           5.5640   -7.8345    0.0000 H       1  UNL1        0.0648
    145 H           3.8598   -6.4046    0.0000 H       1  UNL1        0.0647
    146 H          16.3639    6.2768    0.0000 H       1  UNL1        0.2095
    147 H           8.3698   -9.0190    0.0000 H       1  UNL1        0.2101
    148 H          12.0140   -6.7090    0.0000 H       1  UNL1        0.0584
    149 H          11.2859   -6.3848    0.0000 H       1  UNL1        0.0584
    150 H           6.8941   -7.9738    0.0000 H       1  UNL1        0.2101
    151 H           2.7823   -7.4611    0.0000 H       1  UNL1        0.0584
    152 H           3.5484   -7.6808    0.0000 H       1  UNL1        0.0584
    153 H          10.0045   -9.3665    0.0000 H       1  UNL1        0.2100
    154 H           4.4056   -8.7846    0.0000 H       1  UNL1        0.2100
    155 H          12.6611   -7.7250    0.0000 H       1  UNL1        0.2095
    156 H           2.0000   -6.5450    0.0000 H       1  UNL1        0.2095
@<TRIPOS>BOND
     1    38     1    1
     2    53     1    1
     3     2    50    1
     4    55     2    1
     5     3    50    2
     6     4    53    1
     7     4    57    1
     8    54     5    1
     9     5   128    1
    10     6    55    1
    11     6    61    1
    12    56     7    1
    13    64     7    1
    14    58     8    1
    15    66     8    1
    16    59     9    1
    17     9   132    1
    18    60    10    1
    19    10   137    1
    20    62    11    1
    21    11   139    1
    22    12    63    1
    23    12   141    1
    24    13    64    1
    25    13    70    1
    26    14    63    2
    27    15    66    1
    28    15    72    1
    29    16    65    1
    30    16   146    1
    31    67    17    1
    32    17   147    1
    33    68    18    1
    34    18   150    1
    35    69    19    1
    36    19   153    1
    37    71    20    1
    38    20   154    1
    39    21    73    1
    40    21   155    1
    41    22    74    1
    42    22   156    1
    43    23    24    1
    44    23    26    1
    45    23    28    1
    46    23    37    1
    47    24    25    1
    48    24    33    1
    49    24    75    1
    50    25    27    1
    51    25    34    1
    52    25    40    1
    53    26    31    1
    54    26    35    1
    55    26    43    1
    56    27    29    1
    57    27    30    1
    58    27    76    1
    59    28    30    1
    60    28    77    1
    61    28    78    1
    62    29    38    1
    63    29    47    1
    64    29    48    1
    65    30    79    1
    66    30    80    1
    67    31    32    1
    68    31    41    2
    69    32    36    1
    70    32    44    1
    71    32    81    1
    72    33    41    1
    73    33    82    1
    74    33    83    1
    75    34    42    1
    76    34    84    1
    77    34    85    1
    78    35    39    1
    79    35    86    1
    80    35    87    1
    81    36    39    1
    82    36    45    1
    83    36    50    1
    84    37    88    1
    85    37    89    1
    86    37    90    1
    87    38    42    1
    88    38    91    1
    89    39    92    1
    90    39    93    1
    91    40    94    1
    92    40    95    1
    93    40    96    1
    94    41    97    1
    95    42    98    1
    96    42    99    1
    97    43   100    1
    98    43   101    1
    99    43   102    1
   100    44    46    1
   101    44   103    1
   102    44   104    1
   103    45    49    1
   104    45   105    1
   105    45   106    1
   106    46    49    1
   107    46    51    1
   108    46    52    1
   109    47   107    1
   110    47   108    1
   111    47   109    1
   112    48   110    1
   113    48   111    1
   114    48   112    1
   115    49   113    1
   116    49   114    1
   117    51   116    1
   118    51   117    1
   119    51   118    1
   120    52   115    1
   121    52   119    1
   122    52   120    1
   123    53    54    1
   124    53   121    1
   125    54    56    1
   126    54   122    1
   127    55    59    1
   128    55   123    1
   129    56    58    1
   130    56   124    1
   131    57    58    1
   132    57    63    1
   133    57   125    1
   134    58   126    1
   135    59    60    1
   136    59   127    1
   137    60    62    1
   138    60   129    1
   139    61    62    1
   140    61    65    1
   141    61   130    1
   142    62   131    1
   143    64    67    1
   144    64   133    1
   145    65   134    1
   146    65   135    1
   147    66    68    1
   148    66   136    1
   149    67    69    1
   150    67   138    1
   151    68    71    1
   152    68   140    1
   153    69    70    1
   154    69   142    1
   155    70    73    1
   156    70   143    1
   157    71    72    1
   158    71   144    1
   159    72    74    1
   160    72   145    1
   161    73   148    1
   162    73   149    1
   163    74   151    1
   164    74   152    1
