@<TRIPOS>MOLECULE
IMPHY001135
 55 54 0 0 0
SMALL
GASTEIGER

@<TRIPOS>ATOM
      1 O          13.2583   -0.7500    0.0000 O.2     1  UNL1       -0.2977
      2 C           6.3301    0.2500    0.0000 C.3     1  UNL1       -0.0439
      3 C           7.1962    0.7500    0.0000 C.3     1  UNL1       -0.0505
      4 C           8.0622    0.2500    0.0000 C.3     1  UNL1       -0.0526
      5 C           9.7942    0.2500    0.0000 C.3     1  UNL1       -0.0439
      6 C           8.9282    0.7500    0.0000 C.3     1  UNL1       -0.0505
      7 C           5.4641    0.7500    0.0000 C.3     1  UNL1       -0.0505
      8 C           4.5981    0.2500    0.0000 C.3     1  UNL1       -0.0526
      9 C          10.6603    0.7500    0.0000 C.3     1  UNL1       -0.0501
     10 C           3.7320    0.7500    0.0000 C.3     1  UNL1       -0.0507
     11 C           6.3301   -0.7500    0.0000 C.3     1  UNL1       -0.0624
     12 C           2.8660    0.2500    0.0000 C.3     1  UNL1       -0.0467
     13 C           9.7942   -0.7500    0.0000 C.3     1  UNL1       -0.0624
     14 C          11.5263    0.2500    0.0000 C.3     1  UNL1       -0.0461
     15 C          12.3923    0.7500    0.0000 C.3     1  UNL1        0.0056
     16 C           2.0000    0.7500    0.0000 C.3     1  UNL1       -0.0627
     17 C           2.8660   -0.7500    0.0000 C.3     1  UNL1       -0.0627
     18 C          13.2583    0.2500    0.0000 C.2     1  UNL1        0.1303
     19 C          14.1244    0.7500    0.0000 C.3     1  UNL1       -0.0061
     20 H           6.8671   -0.0600    0.0000 H       1  UNL1        0.0298
     21 H           7.5947    1.2250    0.0000 H       1  UNL1        0.0268
     22 H           6.7976    1.2250    0.0000 H       1  UNL1        0.0268
     23 H           7.6636   -0.2249    0.0000 H       1  UNL1        0.0265
     24 H           8.4607   -0.2249    0.0000 H       1  UNL1        0.0265
     25 H           9.2573   -0.0600    0.0000 H       1  UNL1        0.0298
     26 H           9.3267    1.2250    0.0000 H       1  UNL1        0.0268
     27 H           8.5297    1.2250    0.0000 H       1  UNL1        0.0268
     28 H           5.8626    1.2250    0.0000 H       1  UNL1        0.0268
     29 H           5.0656    1.2250    0.0000 H       1  UNL1        0.0268
     30 H           4.1996   -0.2249    0.0000 H       1  UNL1        0.0265
     31 H           4.9966   -0.2249    0.0000 H       1  UNL1        0.0265
     32 H          11.0588    1.2250    0.0000 H       1  UNL1        0.0268
     33 H          10.2617    1.2250    0.0000 H       1  UNL1        0.0268
     34 H           4.1306    1.2250    0.0000 H       1  UNL1        0.0268
     35 H           3.3335    1.2250    0.0000 H       1  UNL1        0.0268
     36 H           5.7101   -0.7500    0.0000 H       1  UNL1        0.0232
     37 H           6.3301   -1.3700    0.0000 H       1  UNL1        0.0232
     38 H           6.9501   -0.7500    0.0000 H       1  UNL1        0.0232
     39 H           2.8660    0.8700    0.0000 H       1  UNL1        0.0295
     40 H           9.1742   -0.7500    0.0000 H       1  UNL1        0.0232
     41 H           9.7942   -1.3700    0.0000 H       1  UNL1        0.0232
     42 H          10.4142   -0.7500    0.0000 H       1  UNL1        0.0232
     43 H          11.1278   -0.2249    0.0000 H       1  UNL1        0.0269
     44 H          11.9248   -0.2249    0.0000 H       1  UNL1        0.0269
     45 H          12.7908    1.2250    0.0000 H       1  UNL1        0.0341
     46 H          11.9938    1.2250    0.0000 H       1  UNL1        0.0341
     47 H           2.3100    1.2869    0.0000 H       1  UNL1        0.0232
     48 H           1.4631    1.0600    0.0000 H       1  UNL1        0.0232
     49 H           1.6900    0.2131    0.0000 H       1  UNL1        0.0232
     50 H           2.2460   -0.7500    0.0000 H       1  UNL1        0.0232
     51 H           2.8660   -1.3700    0.0000 H       1  UNL1        0.0232
     52 H           3.4860   -0.7500    0.0000 H       1  UNL1        0.0232
     53 H          14.4344    0.2131    0.0000 H       1  UNL1        0.0306
     54 H          14.6613    1.0600    0.0000 H       1  UNL1        0.0306
     55 H          13.8144    1.2869    0.0000 H       1  UNL1        0.0306
@<TRIPOS>BOND
     1     1    18    2
     2     2     3    1
     3     2     7    1
     4     2    11    1
     5     2    20    1
     6     3     4    1
     7     3    21    1
     8     3    22    1
     9     4     6    1
    10     4    23    1
    11     4    24    1
    12     5     6    1
    13     5     9    1
    14     5    13    1
    15     5    25    1
    16     6    26    1
    17     6    27    1
    18     7     8    1
    19     7    28    1
    20     7    29    1
    21     8    10    1
    22     8    30    1
    23     8    31    1
    24     9    14    1
    25     9    32    1
    26     9    33    1
    27    10    12    1
    28    10    34    1
    29    10    35    1
    30    11    36    1
    31    11    37    1
    32    11    38    1
    33    12    16    1
    34    12    17    1
    35    12    39    1
    36    13    40    1
    37    13    41    1
    38    13    42    1
    39    14    15    1
    40    14    43    1
    41    14    44    1
    42    15    18    1
    43    15    45    1
    44    15    46    1
    45    16    47    1
    46    16    48    1
    47    16    49    1
    48    17    50    1
    49    17    51    1
    50    17    52    1
    51    18    19    1
    52    19    53    1
    53    19    54    1
    54    19    55    1
