@<TRIPOS>MOLECULE
IMPHY005002
 38 40 0 0 0
SMALL
GASTEIGER

@<TRIPOS>ATOM
      1 O           6.4783   -1.3047    0.0000 O.2     1  UNL1       -0.4672
      2 C           3.8000    0.0000    0.0000 C.3     1  UNL1       -0.0222
      3 C           3.8000   -1.0000    0.0000 C.3     1  UNL1       -0.0282
      4 C           2.9061    0.5347    0.0000 C.3     1  UNL1       -0.0379
      5 C           4.6660    0.5000    0.0000 C.3     1  UNL1       -0.0183
      6 C           2.9061   -1.5346    0.0000 C.3     1  UNL1       -0.0493
      7 C           2.0000    0.0208    0.0000 C.3     1  UNL1       -0.0499
      8 C           4.6660   -1.5000    0.0000 C.3     1  UNL1        0.0091
      9 C           2.0000   -1.0208    0.0000 C.3     1  UNL1       -0.0525
     10 C           3.8000    1.0000    0.0000 C.3     1  UNL1       -0.0588
     11 C           5.5321    0.0000    0.0000 C.ar    1  UNL1       -0.0030
     12 C           5.5321   -1.0000    0.0000 C.ar    1  UNL1        0.1086
     13 C           2.9176    1.5346    0.0000 C.3     1  UNL1       -0.0619
     14 C           6.4783    0.3048    0.0000 C.ar    1  UNL1       -0.0093
     15 C           7.0619   -0.5000    0.0000 C.ar    1  UNL1        0.0952
     16 C           6.7889    1.2553    0.0000 C.3     1  UNL1       -0.0365
     17 H           3.8066   -1.8499    0.0000 H       1  UNL1        0.0310
     18 H           2.1741    0.9668    0.0000 H       1  UNL1        0.0304
     19 H           5.0646    0.9750    0.0000 H       1  UNL1        0.0320
     20 H           4.2675    0.9750    0.0000 H       1  UNL1        0.0320
     21 H           2.5124   -2.0136    0.0000 H       1  UNL1        0.0268
     22 H           3.3107   -2.0044    0.0000 H       1  UNL1        0.0268
     23 H           1.7909    0.6045    0.0000 H       1  UNL1        0.0268
     24 H           1.3891   -0.0852    0.0000 H       1  UNL1        0.0268
     25 H           4.2675   -1.9749    0.0000 H       1  UNL1        0.0346
     26 H           5.0646   -1.9749    0.0000 H       1  UNL1        0.0346
     27 H           1.3891   -0.9147    0.0000 H       1  UNL1        0.0265
     28 H           1.7909   -1.6045    0.0000 H       1  UNL1        0.0265
     29 H           4.4200    1.0000    0.0000 H       1  UNL1        0.0235
     30 H           3.8000    1.6200    0.0000 H       1  UNL1        0.0235
     31 H           3.1800    1.0000    0.0000 H       1  UNL1        0.0235
     32 H           3.5376    1.5275    0.0000 H       1  UNL1        0.0233
     33 H           2.9248    2.1546    0.0000 H       1  UNL1        0.0233
     34 H           2.2977    1.5418    0.0000 H       1  UNL1        0.0233
     35 H           7.6819   -0.5000    0.0000 H       1  UNL1        0.1032
     36 H           7.3783    1.0627    0.0000 H       1  UNL1        0.0279
     37 H           6.9816    1.8446    0.0000 H       1  UNL1        0.0279
     38 H           6.1996    1.4479    0.0000 H       1  UNL1        0.0279
@<TRIPOS>BOND
     1     1    12   ar
     2     1    15   ar
     3     2     3    1
     4     2     4    1
     5     2     5    1
     6     2    10    1
     7     3     6    1
     8     3     8    1
     9     3    17    1
    10     4     7    1
    11     4    13    1
    12     4    18    1
    13     5    11    1
    14     5    19    1
    15     5    20    1
    16     6     9    1
    17     6    21    1
    18     6    22    1
    19     7     9    1
    20     7    23    1
    21     7    24    1
    22     8    12    1
    23     8    25    1
    24     8    26    1
    25     9    27    1
    26     9    28    1
    27    10    29    1
    28    10    30    1
    29    10    31    1
    30    11    12   ar
    31    11    14   ar
    32    13    32    1
    33    13    33    1
    34    13    34    1
    35    14    15   ar
    36    14    16    1
    37    15    35    1
    38    16    36    1
    39    16    37    1
    40    16    38    1
