@<TRIPOS>MOLECULE
IMPHY006985
 29 31 0 0 0
SMALL
GASTEIGER

@<TRIPOS>ATOM
      1 O           8.1962    0.8488    0.0000 O.3     1  UNL1       -0.4914
      2 O           6.4144    1.8592    0.0000 O.3     1  UNL1       -0.5028
      3 O           4.6660    1.8246    0.0000 O.2     1  UNL1       -0.2865
      4 O           4.6660   -2.1754    0.0000 O.2     1  UNL1       -0.2866
      5 C           5.5321    0.3246    0.0000 C.ar    1  UNL1        0.0781
      6 C           5.5321   -0.6754    0.0000 C.ar    1  UNL1        0.0368
      7 C           3.8000    0.3246    0.0000 C.ar    1  UNL1        0.0332
      8 C           3.8000   -0.6754    0.0000 C.ar    1  UNL1        0.0331
      9 C           4.6660    0.8246    0.0000 C.2     1  UNL1        0.1981
     10 C           4.6660   -1.1754    0.0000 C.2     1  UNL1        0.1946
     11 C           6.4260    0.8593    0.0000 C.ar    1  UNL1        0.1702
     12 C           6.4260   -1.2100    0.0000 C.ar    1  UNL1       -0.0465
     13 C           7.3321    0.3454    0.0000 C.ar    1  UNL1        0.1620
     14 C           2.9061    0.8593    0.0000 C.ar    1  UNL1       -0.0502
     15 C           2.9061   -1.2100    0.0000 C.ar    1  UNL1       -0.0502
     16 C           7.3321   -0.6962    0.0000 C.ar    1  UNL1       -0.0156
     17 C           2.0000    0.3454    0.0000 C.ar    1  UNL1       -0.0610
     18 C           2.0000   -0.6962    0.0000 C.ar    1  UNL1       -0.0610
     19 C           9.0641    0.3521    0.0000 C.3     1  UNL1        0.0790
     20 H           6.4188   -1.8300    0.0000 H       1  UNL1        0.0626
     21 H           2.9132    1.4792    0.0000 H       1  UNL1        0.0625
     22 H           2.9132   -1.8300    0.0000 H       1  UNL1        0.0625
     23 H           7.8678   -1.0083    0.0000 H       1  UNL1        0.0655
     24 H           1.4643    0.6575    0.0000 H       1  UNL1        0.0618
     25 H           1.4643   -1.0083    0.0000 H       1  UNL1        0.0618
     26 H           6.9478    2.1754    0.0000 H       1  UNL1        0.2923
     27 H           8.7562   -0.1860    0.0000 H       1  UNL1        0.0660
     28 H           9.6022    0.0442    0.0000 H       1  UNL1        0.0660
     29 H           9.3720    0.8902    0.0000 H       1  UNL1        0.0660
@<TRIPOS>BOND
     1     1    13    1
     2     1    19    1
     3     2    11    1
     4     2    26    1
     5     3     9    2
     6     4    10    2
     7     5     6   ar
     8     5     9    1
     9     5    11   ar
    10     6    10    1
    11     6    12   ar
    12     7     8   ar
    13     7     9    1
    14     7    14   ar
    15     8    10    1
    16     8    15   ar
    17    11    13   ar
    18    12    16   ar
    19    12    20    1
    20    13    16   ar
    21    14    17   ar
    22    14    21    1
    23    15    18   ar
    24    15    22    1
    25    16    23    1
    26    17    18   ar
    27    17    24    1
    28    18    25    1
    29    19    27    1
    30    19    28    1
    31    19    29    1
