@<TRIPOS>MOLECULE
IMPHY004708
 39 42 0 0 0
SMALL
GASTEIGER

@<TRIPOS>ATOM
      1 O           7.2304   -2.4371    0.0000 O.2     1  UNL1       -0.4618
      2 O          10.8026   -0.5977    0.0000 O.3     1  UNL1       -0.4489
      3 O          10.8026   -2.2072    0.0000 O.3     1  UNL1       -0.4523
      4 O           8.9904    0.5976    0.0000 O.3     1  UNL1       -0.4905
      5 O           7.2419    0.6322    0.0000 O.2     1  UNL1       -0.2863
      6 O           2.8680    1.1317    0.0000 O.3     1  UNL1       -0.4915
      7 O           4.6038    2.1250    0.0000 O.3     1  UNL1       -0.5033
      8 C           8.1243   -0.9024    0.0000 C.ar    1  UNL1        0.1099
      9 C           8.1243   -1.9024    0.0000 C.ar    1  UNL1        0.1457
     10 C           8.9904   -0.4024    0.0000 C.ar    1  UNL1        0.1797
     11 C           9.8564   -0.9024    0.0000 C.ar    1  UNL1        0.2085
     12 C           9.8564   -1.9024    0.0000 C.ar    1  UNL1        0.1734
     13 C           6.3243   -0.8816    0.0000 C.ar    1  UNL1        0.0645
     14 C           7.2304   -0.3678    0.0000 C.ar    1  UNL1        0.2038
     15 C           8.9904   -2.4024    0.0000 C.ar    1  UNL1        0.0271
     16 C           5.4602   -0.3783    0.0000 C.ar    1  UNL1       -0.0076
     17 C           6.3243   -1.9232    0.0000 C.ar    1  UNL1        0.1038
     18 C          11.3862   -1.4024    0.0000 C.3     1  UNL1        0.2334
     19 C           5.4641    0.6217    0.0000 C.ar    1  UNL1       -0.0086
     20 C           4.5923   -0.8749    0.0000 C.ar    1  UNL1       -0.0501
     21 C           4.6000    1.1250    0.0000 C.ar    1  UNL1        0.1590
     22 C           3.7282   -0.3716    0.0000 C.ar    1  UNL1       -0.0157
     23 C           3.7320    0.6284    0.0000 C.ar    1  UNL1        0.1613
     24 C           9.8564    1.0976    0.0000 C.3     1  UNL1        0.0790
     25 C           2.0000    0.6351    0.0000 C.3     1  UNL1        0.0790
     26 H           8.9904   -3.0224    0.0000 H       1  UNL1        0.0692
     27 H           5.7886   -2.2353    0.0000 H       1  UNL1        0.1037
     28 H          11.8471   -1.8172    0.0000 H       1  UNL1        0.1166
     29 H          11.8471   -0.9877    0.0000 H       1  UNL1        0.1166
     30 H           6.0022    0.9296    0.0000 H       1  UNL1        0.0661
     31 H           4.5899   -1.4949    0.0000 H       1  UNL1        0.0625
     32 H           3.1901   -0.6795    0.0000 H       1  UNL1        0.0655
     33 H          10.1664    0.5606    0.0000 H       1  UNL1        0.0660
     34 H          10.3933    1.4076    0.0000 H       1  UNL1        0.0660
     35 H           9.5464    1.6345    0.0000 H       1  UNL1        0.0660
     36 H           4.0681    2.4371    0.0000 H       1  UNL1        0.2923
     37 H           1.6921    1.1732    0.0000 H       1  UNL1        0.0660
     38 H           1.4619    0.3271    0.0000 H       1  UNL1        0.0660
     39 H           2.3079    0.0969    0.0000 H       1  UNL1        0.0660
@<TRIPOS>BOND
     1     1     9   ar
     2     1    17   ar
     3     2    11    1
     4     2    18    1
     5     3    12    1
     6     3    18    1
     7     4    10    1
     8     4    24    1
     9     5    14    2
    10     6    23    1
    11     6    25    1
    12     7    21    1
    13     7    36    1
    14     8     9   ar
    15     8    10   ar
    16     8    14   ar
    17     9    15   ar
    18    10    11   ar
    19    11    12   ar
    20    12    15   ar
    21    13    14   ar
    22    13    16    1
    23    13    17   ar
    24    15    26    1
    25    16    19   ar
    26    16    20   ar
    27    17    27    1
    28    18    28    1
    29    18    29    1
    30    19    21   ar
    31    19    30    1
    32    20    22   ar
    33    20    31    1
    34    21    23   ar
    35    22    23   ar
    36    22    32    1
    37    24    33    1
    38    24    34    1
    39    24    35    1
    40    25    37    1
    41    25    38    1
    42    25    39    1
