@<TRIPOS>MOLECULE
IMPHY015026
 55 54 0 0 0
SMALL
GASTEIGER

@<TRIPOS>ATOM
      1 O          14.1244   -2.4400    0.0000 O.3     1  UNL1       -0.3950
      2 C           9.7942   -2.9400    0.0000 C.3     1  UNL1       -0.0530
      3 C           8.9282   -2.4400    0.0000 C.3     1  UNL1       -0.0528
      4 C           3.7320    0.5600    0.0000 C.3     1  UNL1       -0.0530
      5 C           4.5981    0.0600    0.0000 C.3     1  UNL1       -0.0528
      6 C          10.6603   -2.4400    0.0000 C.3     1  UNL1       -0.0530
      7 C           8.0622   -2.9400    0.0000 C.3     1  UNL1       -0.0496
      8 C           3.7320    1.5600    0.0000 C.3     1  UNL1       -0.0531
      9 C           4.5981   -0.9400    0.0000 C.3     1  UNL1       -0.0496
     10 C          11.5263   -2.9400    0.0000 C.3     1  UNL1       -0.0510
     11 C           2.8660    2.0600    0.0000 C.3     1  UNL1       -0.0533
     12 C           7.1962   -2.4400    0.0000 C.3     1  UNL1       -0.0348
     13 C           5.4641   -1.4400    0.0000 C.3     1  UNL1       -0.0348
     14 C          12.3923   -2.4400    0.0000 C.3     1  UNL1       -0.0297
     15 C           2.8660    3.0600    0.0000 C.3     1  UNL1       -0.0559
     16 C           6.3301   -2.9400    0.0000 C.2     1  UNL1       -0.0879
     17 C           5.4641   -2.4400    0.0000 C.2     1  UNL1       -0.0879
     18 C          13.2583   -2.9400    0.0000 C.3     1  UNL1        0.0442
     19 C           2.0000    3.5600    0.0000 C.3     1  UNL1       -0.0653
     20 H           9.3957   -3.4150    0.0000 H       1  UNL1        0.0265
     21 H          10.1928   -3.4150    0.0000 H       1  UNL1        0.0265
     22 H           9.3267   -1.9650    0.0000 H       1  UNL1        0.0265
     23 H           8.5297   -1.9650    0.0000 H       1  UNL1        0.0265
     24 H           3.1215    0.6677    0.0000 H       1  UNL1        0.0265
     25 H           3.5200   -0.0226    0.0000 H       1  UNL1        0.0265
     26 H           5.2087   -0.0477    0.0000 H       1  UNL1        0.0265
     27 H           4.8101    0.6426    0.0000 H       1  UNL1        0.0265
     28 H          11.0588   -1.9650    0.0000 H       1  UNL1        0.0265
     29 H          10.2617   -1.9650    0.0000 H       1  UNL1        0.0265
     30 H           4.3426    1.4523    0.0000 H       1  UNL1        0.0265
     31 H           3.9441    2.1426    0.0000 H       1  UNL1        0.0265
     32 H           7.6636   -3.4150    0.0000 H       1  UNL1        0.0268
     33 H           8.4607   -3.4150    0.0000 H       1  UNL1        0.0268
     34 H           3.9875   -0.8323    0.0000 H       1  UNL1        0.0268
     35 H           4.3860   -1.5226    0.0000 H       1  UNL1        0.0268
     36 H          11.1278   -3.4150    0.0000 H       1  UNL1        0.0266
     37 H          11.9248   -3.4150    0.0000 H       1  UNL1        0.0266
     38 H           2.2554    2.1677    0.0000 H       1  UNL1        0.0265
     39 H           2.6540    1.4774    0.0000 H       1  UNL1        0.0265
     40 H           7.5947   -1.9650    0.0000 H       1  UNL1        0.0307
     41 H           6.7976   -1.9650    0.0000 H       1  UNL1        0.0307
     42 H           6.0747   -1.5477    0.0000 H       1  UNL1        0.0307
     43 H           5.6762   -0.8574    0.0000 H       1  UNL1        0.0307
     44 H          12.7908   -1.9650    0.0000 H       1  UNL1        0.0287
     45 H          11.9938   -1.9650    0.0000 H       1  UNL1        0.0287
     46 H           3.4766    2.9523    0.0000 H       1  UNL1        0.0263
     47 H           3.0781    3.6426    0.0000 H       1  UNL1        0.0263
     48 H           6.3301   -3.5600    0.0000 H       1  UNL1        0.0569
     49 H           4.9272   -2.7500    0.0000 H       1  UNL1        0.0569
     50 H          12.8598   -3.4150    0.0000 H       1  UNL1        0.0557
     51 H          13.6569   -3.4150    0.0000 H       1  UNL1        0.0557
     52 H           2.3100    4.0969    0.0000 H       1  UNL1        0.0230
     53 H           1.4631    3.8700    0.0000 H       1  UNL1        0.0230
     54 H           1.6900    3.0231    0.0000 H       1  UNL1        0.0230
     55 H          14.6613   -2.7500    0.0000 H       1  UNL1        0.2094
@<TRIPOS>BOND
     1     1    18    1
     2     1    55    1
     3     2     3    1
     4     2     6    1
     5     2    20    1
     6     2    21    1
     7     3     7    1
     8     3    22    1
     9     3    23    1
    10     4     5    1
    11     4     8    1
    12     4    24    1
    13     4    25    1
    14     5     9    1
    15     5    26    1
    16     5    27    1
    17     6    10    1
    18     6    28    1
    19     6    29    1
    20     7    12    1
    21     7    32    1
    22     7    33    1
    23     8    11    1
    24     8    30    1
    25     8    31    1
    26     9    13    1
    27     9    34    1
    28     9    35    1
    29    10    14    1
    30    10    36    1
    31    10    37    1
    32    11    15    1
    33    11    38    1
    34    11    39    1
    35    12    16    1
    36    12    40    1
    37    12    41    1
    38    13    17    1
    39    13    42    1
    40    13    43    1
    41    14    18    1
    42    14    44    1
    43    14    45    1
    44    15    19    1
    45    15    46    1
    46    15    47    1
    47    16    17    2
    48    16    48    1
    49    17    49    1
    50    18    50    1
    51    18    51    1
    52    19    52    1
    53    19    53    1
    54    19    54    1
