@<TRIPOS>MOLECULE
IMPHY017680
 23 23 0 0 0
SMALL
GASTEIGER

@<TRIPOS>ATOM
      1 N           3.7320   -0.6900    0.0000 N.3     1  UNL1       -0.3110
      2 C           2.8660   -0.1900    0.0000 C.3     1  UNL1        0.0050
      3 C           4.5981   -0.1900    0.0000 C.3     1  UNL1        0.0050
      4 C           2.8660    0.8100    0.0000 C.3     1  UNL1       -0.0377
      5 C           4.5981    0.8100    0.0000 C.3     1  UNL1       -0.0377
      6 C           3.7320    1.3100    0.0000 C.3     1  UNL1       -0.0503
      7 C           2.0000   -0.6900    0.0000 C.3     1  UNL1       -0.0497
      8 C           5.4641   -0.6900    0.0000 C.3     1  UNL1       -0.0497
      9 H           2.8660   -1.0400    0.0000 H       1  UNL1        0.0458
     10 H           4.5981   -1.0400    0.0000 H       1  UNL1        0.0458
     11 H           2.6540    1.3926    0.0000 H       1  UNL1        0.0280
     12 H           2.2554    0.7023    0.0000 H       1  UNL1        0.0280
     13 H           5.2087    0.7023    0.0000 H       1  UNL1        0.0280
     14 H           4.8101    1.3926    0.0000 H       1  UNL1        0.0280
     15 H           4.1306    1.7850    0.0000 H       1  UNL1        0.0266
     16 H           3.3335    1.7850    0.0000 H       1  UNL1        0.0266
     17 H           3.7320   -1.3100    0.0000 H       1  UNL1        0.1224
     18 H           1.6900   -0.1531    0.0000 H       1  UNL1        0.0245
     19 H           1.4631   -1.0000    0.0000 H       1  UNL1        0.0245
     20 H           2.3100   -1.2269    0.0000 H       1  UNL1        0.0245
     21 H           5.1541   -1.2269    0.0000 H       1  UNL1        0.0245
     22 H           6.0010   -1.0000    0.0000 H       1  UNL1        0.0245
     23 H           5.7741   -0.1531    0.0000 H       1  UNL1        0.0245
@<TRIPOS>BOND
     1     1     2    1
     2     1     3    1
     3     1    17    1
     4     2     4    1
     5     2     7    1
     6     2     9    1
     7     3     5    1
     8     3     8    1
     9     3    10    1
    10     4     6    1
    11     4    11    1
    12     4    12    1
    13     5     6    1
    14     5    13    1
    15     5    14    1
    16     6    15    1
    17     6    16    1
    18     7    18    1
    19     7    19    1
    20     7    20    1
    21     8    21    1
    22     8    22    1
    23     8    23    1
