@<TRIPOS>MOLECULE
IMPHY001810
 82 85 0 0 0
SMALL
GASTEIGER

@<TRIPOS>ATOM
      1 O           2.5369    3.2896    0.0000 O.3     1  UNL1       -0.3912
      2 O          10.3580   -3.2896    0.0000 O.3     1  UNL1       -0.3912
      3 C           5.1350    1.7896    0.0000 C.3     1  UNL1       -0.0221
      4 C           7.7600   -1.7896    0.0000 C.3     1  UNL1       -0.0221
      5 C           5.1350    2.7896    0.0000 C.3     1  UNL1       -0.0273
      6 C           7.7600   -2.7896    0.0000 C.3     1  UNL1       -0.0273
      7 C           6.0290    1.2549    0.0000 C.3     1  UNL1       -0.0145
      8 C           6.8660   -1.2549    0.0000 C.3     1  UNL1       -0.0145
      9 C           4.2690    3.2896    0.0000 C.3     1  UNL1       -0.0056
     10 C           8.6260   -3.2896    0.0000 C.3     1  UNL1       -0.0056
     11 C           4.2690    1.2896    0.0000 C.3     1  UNL1       -0.0445
     12 C           8.6260   -1.2896    0.0000 C.3     1  UNL1       -0.0445
     13 C           6.0174    0.2550    0.0000 C.3     1  UNL1       -0.0455
     14 C           6.8776   -0.2550    0.0000 C.3     1  UNL1       -0.0455
     15 C           6.0290    3.3242    0.0000 C.3     1  UNL1       -0.0454
     16 C           6.8660   -3.3242    0.0000 C.3     1  UNL1       -0.0454
     17 C           3.4030    2.7896    0.0000 C.3     1  UNL1        0.0606
     18 C           9.4920   -2.7896    0.0000 C.3     1  UNL1        0.0606
     19 C           3.4030    1.7896    0.0000 C.3     1  UNL1       -0.0258
     20 C           9.4920   -1.7896    0.0000 C.3     1  UNL1       -0.0258
     21 C           6.9350    1.7688    0.0000 C.2     1  UNL1       -0.0730
     22 C           5.9600   -1.7688    0.0000 C.2     1  UNL1       -0.0730
     23 C           5.1350    0.7896    0.0000 C.3     1  UNL1       -0.0587
     24 C           7.7600   -0.7896    0.0000 C.3     1  UNL1       -0.0587
     25 C           6.9350    2.8104    0.0000 C.3     1  UNL1       -0.0314
     26 C           5.9600   -2.8104    0.0000 C.3     1  UNL1       -0.0314
     27 C           3.7690    4.1556    0.0000 C.3     1  UNL1       -0.0572
     28 C           4.7690    4.1556    0.0000 C.3     1  UNL1       -0.0572
     29 C           9.1260   -4.1556    0.0000 C.3     1  UNL1       -0.0572
     30 C           8.1260   -4.1556    0.0000 C.3     1  UNL1       -0.0572
     31 C           7.7991    1.2654    0.0000 C.2     1  UNL1       -0.0992
     32 C           5.0959   -1.2654    0.0000 C.2     1  UNL1       -0.0992
     33 H           5.1285    3.6396    0.0000 H       1  UNL1        0.0312
     34 H           7.7665   -3.6396    0.0000 H       1  UNL1        0.0312
     35 H           6.5629    0.9398    0.0000 H       1  UNL1        0.0351
     36 H           6.3321   -0.9398    0.0000 H       1  UNL1        0.0351
     37 H           3.8705    0.8146    0.0000 H       1  UNL1        0.0272
     38 H           4.6675    0.8146    0.0000 H       1  UNL1        0.0272
     39 H           9.0245   -0.8146    0.0000 H       1  UNL1        0.0272
     40 H           8.2274   -0.8146    0.0000 H       1  UNL1        0.0272
     41 H           5.4081    0.3697    0.0000 H       1  UNL1        0.0271
     42 H           5.7986   -0.3251    0.0000 H       1  UNL1        0.0271
     43 H           7.4869   -0.3697    0.0000 H       1  UNL1        0.0271
     44 H           7.0964    0.3251    0.0000 H       1  UNL1        0.0271
     45 H           6.4226    3.8033    0.0000 H       1  UNL1        0.0271
     46 H           5.6244    3.7940    0.0000 H       1  UNL1        0.0271
     47 H           6.4724   -3.8033    0.0000 H       1  UNL1        0.0271
     48 H           7.2706   -3.7940    0.0000 H       1  UNL1        0.0271
     49 H           3.4030    3.4096    0.0000 H       1  UNL1        0.0599
     50 H          10.0289   -2.4796    0.0000 H       1  UNL1        0.0599
     51 H           2.7924    1.8972    0.0000 H       1  UNL1        0.0290
     52 H           3.1909    1.2070    0.0000 H       1  UNL1        0.0290
     53 H          10.1026   -1.8972    0.0000 H       1  UNL1        0.0290
     54 H           9.7041   -1.2070    0.0000 H       1  UNL1        0.0290
     55 H           4.5150    0.7896    0.0000 H       1  UNL1        0.0235
     56 H           5.1350    0.1696    0.0000 H       1  UNL1        0.0235
     57 H           5.7550    0.7896    0.0000 H       1  UNL1        0.0235
     58 H           8.3800   -0.7896    0.0000 H       1  UNL1        0.0235
     59 H           7.7600   -0.1696    0.0000 H       1  UNL1        0.0235
     60 H           7.1400   -0.7896    0.0000 H       1  UNL1        0.0235
     61 H           7.5459    2.7043    0.0000 H       1  UNL1        0.0310
     62 H           7.1441    3.3941    0.0000 H       1  UNL1        0.0310
     63 H           5.3491   -2.7043    0.0000 H       1  UNL1        0.0310
     64 H           5.7509   -3.3941    0.0000 H       1  UNL1        0.0310
     65 H           4.3059    4.4656    0.0000 H       1  UNL1        0.0236
     66 H           3.4590    4.6926    0.0000 H       1  UNL1        0.0236
     67 H           3.2320    3.8456    0.0000 H       1  UNL1        0.0236
     68 H           5.3059    3.8456    0.0000 H       1  UNL1        0.0236
     69 H           5.0790    4.6926    0.0000 H       1  UNL1        0.0236
     70 H           4.2320    4.4656    0.0000 H       1  UNL1        0.0236
     71 H           8.5890   -4.4656    0.0000 H       1  UNL1        0.0236
     72 H           9.4360   -4.6926    0.0000 H       1  UNL1        0.0236
     73 H           9.6629   -3.8456    0.0000 H       1  UNL1        0.0236
     74 H           7.5890   -3.8456    0.0000 H       1  UNL1        0.0236
     75 H           7.8160   -4.6926    0.0000 H       1  UNL1        0.0236
     76 H           8.6629   -4.4656    0.0000 H       1  UNL1        0.0236
     77 H           7.7967    0.6454    0.0000 H       1  UNL1        0.0534
     78 H           8.3372    1.5734    0.0000 H       1  UNL1        0.0534
     79 H           5.0982   -0.6454    0.0000 H       1  UNL1        0.0534
     80 H           4.5577   -1.5734    0.0000 H       1  UNL1        0.0534
     81 H           2.0000    2.9796    0.0000 H       1  UNL1        0.2098
     82 H          10.8950   -2.9796    0.0000 H       1  UNL1        0.2098
@<TRIPOS>BOND
     1    17     1    1
     2     1    81    1
     3    18     2    1
     4     2    82    1
     5     3     5    1
     6     3     7    1
     7     3    11    1
     8     3    23    1
     9     4     6    1
    10     4     8    1
    11     4    12    1
    12     4    24    1
    13     5     9    1
    14     5    15    1
    15     5    33    1
    16     6    10    1
    17     6    16    1
    18     6    34    1
    19     7    13    1
    20     7    21    1
    21     7    35    1
    22     8    14    1
    23     8    22    1
    24     8    36    1
    25     9    17    1
    26     9    27    1
    27     9    28    1
    28    10    18    1
    29    10    29    1
    30    10    30    1
    31    11    19    1
    32    11    37    1
    33    11    38    1
    34    12    20    1
    35    12    39    1
    36    12    40    1
    37    13    14    1
    38    13    41    1
    39    13    42    1
    40    14    43    1
    41    14    44    1
    42    15    25    1
    43    15    45    1
    44    15    46    1
    45    16    26    1
    46    16    47    1
    47    16    48    1
    48    17    19    1
    49    17    49    1
    50    18    20    1
    51    18    50    1
    52    19    51    1
    53    19    52    1
    54    20    53    1
    55    20    54    1
    56    21    25    1
    57    21    31    2
    58    22    26    1
    59    22    32    2
    60    23    55    1
    61    23    56    1
    62    23    57    1
    63    24    58    1
    64    24    59    1
    65    24    60    1
    66    25    61    1
    67    25    62    1
    68    26    63    1
    69    26    64    1
    70    27    65    1
    71    27    66    1
    72    27    67    1
    73    28    68    1
    74    28    69    1
    75    28    70    1
    76    29    71    1
    77    29    72    1
    78    29    73    1
    79    30    74    1
    80    30    75    1
    81    30    76    1
    82    31    77    1
    83    31    78    1
    84    32    79    1
    85    32    80    1
