@<TRIPOS>MOLECULE
IMPHY000457
 73 75 0 0 0
SMALL
GASTEIGER

@<TRIPOS>ATOM
      1 O           6.8671   -2.2608    0.0000 O.3     1  UNL1       -0.3448
      2 O           5.1350   -2.2608    0.0000 O.3     1  UNL1       -0.3405
      3 O           6.8671   -4.2608    0.0000 O.3     1  UNL1       -0.3841
      4 O           5.1350   -5.2608    0.0000 O.3     1  UNL1       -0.3864
      5 O           3.4030   -4.2608    0.0000 O.3     1  UNL1       -0.3865
      6 O           5.2395    1.3316    0.0000 O.3     1  UNL1       -0.4647
      7 O          10.2267    1.3316    0.0000 O.3     1  UNL1       -0.4643
      8 O           2.5369   -2.7608    0.0000 O.3     1  UNL1       -0.3924
      9 O           6.5663    2.4450    0.0000 O.2     1  UNL1       -0.2453
     10 O          10.3312   -1.2608    0.0000 O.2     1  UNL1       -0.3010
     11 O           8.8999    2.4450    0.0000 O.2     1  UNL1       -0.2508
     12 O          15.1095    3.1088    0.0000 O.3     1  UNL1       -0.5033
     13 O          14.4255    4.9882    0.0000 O.3     1  UNL1       -0.5033
     14 C           7.7331   -0.7608    0.0000 C.3     1  UNL1       -0.0004
     15 C           6.8671   -1.2608    0.0000 C.3     1  UNL1        0.0690
     16 C           7.7331    0.2392    0.0000 C.3     1  UNL1        0.0062
     17 C           6.0010   -0.7608    0.0000 C.3     1  UNL1       -0.0072
     18 C           6.0010   -2.7608    0.0000 C.3     1  UNL1        0.1882
     19 C           6.8671    0.7392    0.0000 C.2     1  UNL1        0.0367
     20 C           8.5991   -1.2608    0.0000 C.3     1  UNL1        0.0085
     21 C           6.0010   -3.7608    0.0000 C.3     1  UNL1        0.1341
     22 C           8.5991    0.7392    0.0000 C.3     1  UNL1        0.0523
     23 C           5.1350   -4.2608    0.0000 C.3     1  UNL1        0.1141
     24 C           6.0010    0.2392    0.0000 C.2     1  UNL1       -0.0713
     25 C           4.2690   -3.7608    0.0000 C.3     1  UNL1        0.1119
     26 C           4.2690   -2.7608    0.0000 C.3     1  UNL1        0.1130
     27 C           6.2243    1.5052    0.0000 C.2     1  UNL1        0.3349
     28 C           3.4030   -2.2608    0.0000 C.3     1  UNL1        0.0730
     29 C           9.4651   -0.7608    0.0000 C.2     1  UNL1        0.1207
     30 C           9.2419    1.5052    0.0000 C.2     1  UNL1        0.3077
     31 C          10.8695    2.0976    0.0000 C.3     1  UNL1        0.0964
     32 C           4.5967    2.0976    0.0000 C.3     1  UNL1        0.0820
     33 C          11.8543    1.9240    0.0000 C.3     1  UNL1        0.0069
     34 C          12.4971    2.6900    0.0000 C.ar    1  UNL1       -0.0405
     35 C          13.4819    2.5164    0.0000 C.ar    1  UNL1       -0.0132
     36 C          12.1551    3.6297    0.0000 C.ar    1  UNL1       -0.0548
     37 C          14.1247    3.2824    0.0000 C.ar    1  UNL1        0.1585
     38 C          12.7979    4.3958    0.0000 C.ar    1  UNL1       -0.0163
     39 C          13.7827    4.2221    0.0000 C.ar    1  UNL1        0.1582
     40 H           8.2700   -0.4508    0.0000 H       1  UNL1        0.0336
     41 H           7.4040   -1.5708    0.0000 H       1  UNL1        0.0603
     42 H           7.7331    0.8592    0.0000 H       1  UNL1        0.0360
     43 H           5.3905   -0.6531    0.0000 H       1  UNL1        0.0333
     44 H           5.7890   -1.3434    0.0000 H       1  UNL1        0.0333
     45 H           6.0010   -2.1408    0.0000 H       1  UNL1        0.0937
     46 H           8.2006   -1.7357    0.0000 H       1  UNL1        0.0342
     47 H           8.9976   -1.7357    0.0000 H       1  UNL1        0.0342
     48 H           6.0010   -4.3808    0.0000 H       1  UNL1        0.0671
     49 H           8.6711    0.1234    0.0000 H       1  UNL1        0.0384
     50 H           8.2006    1.2142    0.0000 H       1  UNL1        0.0384
     51 H           4.5981   -4.5708    0.0000 H       1  UNL1        0.0648
     52 H           5.4641    0.5492    0.0000 H       1  UNL1        0.0578
     53 H           3.7320   -3.4508    0.0000 H       1  UNL1        0.0647
     54 H           4.2690   -2.1408    0.0000 H       1  UNL1        0.0647
     55 H           3.8015   -1.7858    0.0000 H       1  UNL1        0.0584
     56 H           3.0044   -1.7858    0.0000 H       1  UNL1        0.0584
     57 H           9.4651   -0.1408    0.0000 H       1  UNL1        0.1026
     58 H           6.8671   -4.8808    0.0000 H       1  UNL1        0.2101
     59 H           4.5981   -5.5708    0.0000 H       1  UNL1        0.2100
     60 H           3.4030   -4.8808    0.0000 H       1  UNL1        0.2100
     61 H           2.0000   -2.4508    0.0000 H       1  UNL1        0.2095
     62 H          11.0815    2.6803    0.0000 H       1  UNL1        0.0701
     63 H          10.3326    2.4076    0.0000 H       1  UNL1        0.0701
     64 H           5.0716    2.4962    0.0000 H       1  UNL1        0.0661
     65 H           4.1982    2.5726    0.0000 H       1  UNL1        0.0661
     66 H           4.1217    1.6991    0.0000 H       1  UNL1        0.0661
     67 H          11.6423    1.3414    0.0000 H       1  UNL1        0.0346
     68 H          12.3912    1.6140    0.0000 H       1  UNL1        0.0346
     69 H          13.6940    1.9338    0.0000 H       1  UNL1        0.0658
     70 H          11.5445    3.7374    0.0000 H       1  UNL1        0.0621
     71 H          12.5858    4.9784    0.0000 H       1  UNL1        0.0655
     72 H          15.3215    2.5262    0.0000 H       1  UNL1        0.2923
     73 H          14.2134    5.5708    0.0000 H       1  UNL1        0.2923
@<TRIPOS>BOND
     1    15     1    1
     2    18     1    1
     3     2    18    1
     4     2    26    1
     5    21     3    1
     6     3    58    1
     7    23     4    1
     8     4    59    1
     9    25     5    1
    10     5    60    1
    11     6    27    1
    12     6    32    1
    13     7    30    1
    14     7    31    1
    15     8    28    1
    16     8    61    1
    17     9    27    2
    18    10    29    2
    19    11    30    2
    20    12    37    1
    21    12    72    1
    22    13    39    1
    23    13    73    1
    24    14    15    1
    25    14    16    1
    26    14    20    1
    27    14    40    1
    28    15    17    1
    29    15    41    1
    30    16    19    1
    31    16    22    1
    32    16    42    1
    33    17    24    1
    34    17    43    1
    35    17    44    1
    36    18    21    1
    37    18    45    1
    38    19    24    2
    39    19    27    1
    40    20    29    1
    41    20    46    1
    42    20    47    1
    43    21    23    1
    44    21    48    1
    45    22    30    1
    46    22    49    1
    47    22    50    1
    48    23    25    1
    49    23    51    1
    50    24    52    1
    51    25    26    1
    52    25    53    1
    53    26    28    1
    54    26    54    1
    55    28    55    1
    56    28    56    1
    57    29    57    1
    58    31    33    1
    59    31    62    1
    60    31    63    1
    61    32    64    1
    62    32    65    1
    63    32    66    1
    64    33    34    1
    65    33    67    1
    66    33    68    1
    67    34    35   ar
    68    34    36   ar
    69    35    37   ar
    70    35    69    1
    71    36    38   ar
    72    36    70    1
    73    37    39   ar
    74    38    39   ar
    75    38    71    1
