@<TRIPOS>MOLECULE
IMPHY006374
 16 16 0 0 0
SMALL
GASTEIGER

@<TRIPOS>ATOM
      1 O           2.5369   -1.5600    0.0000 O.3     1  UNL1       -0.5073
      2 O           4.2690   -2.5600    0.0000 O.co2   1  UNL1       -0.8713
      3 O           5.1350    1.9400    0.0000 O.3     1  UNL1       -0.4771
      4 O           3.4030    1.9400    0.0000 O.2     1  UNL1       -0.2451
      5 C           4.2690    0.4400    0.0000 C.ar    1  UNL1        0.0622
      6 C           3.4030   -0.0600    0.0000 C.ar    1  UNL1       -0.0068
      7 C           5.1350   -0.0600    0.0000 C.ar    1  UNL1       -0.0481
      8 C           3.4030   -1.0600    0.0000 C.ar    1  UNL1        0.1100
      9 C           4.2690   -1.5600    0.0000 C.ar    1  UNL1       -0.0656
     10 C           5.1350   -1.0600    0.0000 C.ar    1  UNL1       -0.0653
     11 C           4.2690    1.4400    0.0000 C.2     1  UNL1        0.3369
     12 H           2.8660    0.2500    0.0000 H       1  UNL1        0.0662
     13 H           5.6720    0.2500    0.0000 H       1  UNL1        0.0625
     14 H           5.6720   -1.3700    0.0000 H       1  UNL1        0.0613
     15 H           2.0000   -1.2500    0.0000 H       1  UNL1        0.2921
     16 H           5.1350    2.5600    0.0000 H       1  UNL1        0.2954
@<TRIPOS>UNITY_ATOM_ATTR
2 1
charge -1
@<TRIPOS>BOND
     1     1     8    1
     2     1    15    1
     3     2     9    1
     4     3    11    1
     5     3    16    1
     6     4    11    2
     7     5     6   ar
     8     5     7   ar
     9     5    11    1
    10     6     8   ar
    11     6    12    1
    12     7    10   ar
    13     7    13    1
    14     8     9   ar
    15     9    10   ar
    16    10    14    1
