@<TRIPOS>MOLECULE
IMPHY001118
 83 88 0 0 0
SMALL
GASTEIGER

@<TRIPOS>ATOM
      1 O           9.5347    2.0966    0.0000 O.3     1  UNL1       -0.4822
      2 O           6.0427   -1.8687    0.0000 O.3     1  UNL1       -0.4828
      3 O           6.0427    2.1313    0.0000 O.3     1  UNL1       -0.4943
      4 O           9.5068    1.1313    0.0000 O.3     1  UNL1       -0.4908
      5 O           9.5232    5.1659    0.0000 O.2     1  UNL1       -0.2917
      6 O           9.5068   -0.8687    0.0000 O.3     1  UNL1       -0.4914
      7 O           7.7748    5.1313    0.0000 O.3     1  UNL1       -0.5058
      8 O           3.4446   -0.3687    0.0000 O.2     1  UNL1       -0.2917
      9 O          13.9049    2.5971    0.0000 O.3     1  UNL1       -0.4913
     10 O          12.1613   -0.3962    0.0000 O.3     1  UNL1       -0.4913
     11 O           2.5405   -1.8656    0.0000 O.3     1  UNL1       -0.5058
     12 O           4.2986   -4.9380    0.0000 O.3     1  UNL1       -0.4949
     13 O          13.8972    0.5971    0.0000 O.3     1  UNL1       -0.5009
     14 C          10.4408    2.6105    0.0000 C.3     1  UNL1        0.1324
     15 C           6.0427   -0.8687    0.0000 C.3     1  UNL1        0.1323
     16 C           8.6408    2.6313    0.0000 C.ar    1  UNL1        0.1467
     17 C          10.4408    3.6521    0.0000 C.3     1  UNL1        0.0520
     18 C           7.7748    2.1313    0.0000 C.ar    1  UNL1        0.0699
     19 C           6.9088   -0.3687    0.0000 C.ar    1  UNL1       -0.0027
     20 C           8.6408    3.6313    0.0000 C.ar    1  UNL1        0.1013
     21 C           7.7748    1.1313    0.0000 C.ar    1  UNL1        0.0348
     22 C           5.1767   -0.3687    0.0000 C.3     1  UNL1        0.0520
     23 C           9.5347    4.1660    0.0000 C.2     1  UNL1        0.1740
     24 C           6.9088    0.6313    0.0000 C.ar    1  UNL1       -0.0434
     25 C          11.3049    2.1071    0.0000 C.ar    1  UNL1        0.0002
     26 C           6.9088    2.6313    0.0000 C.ar    1  UNL1        0.1349
     27 C           8.6408    0.6313    0.0000 C.ar    1  UNL1        0.1694
     28 C           7.7748    4.1313    0.0000 C.ar    1  UNL1        0.1344
     29 C           7.7748   -0.8687    0.0000 C.ar    1  UNL1       -0.0096
     30 C           4.3107   -0.8687    0.0000 C.2     1  UNL1        0.1740
     31 C           4.3107   -1.8687    0.0000 C.ar    1  UNL1        0.1007
     32 C           8.6408   -0.3687    0.0000 C.ar    1  UNL1        0.1625
     33 C           5.1767   -2.3687    0.0000 C.ar    1  UNL1        0.1389
     34 C           6.9088    3.6313    0.0000 C.ar    1  UNL1        0.0231
     35 C          11.3010    1.1072    0.0000 C.ar    1  UNL1       -0.0094
     36 C          12.1728    2.6038    0.0000 C.ar    1  UNL1       -0.0094
     37 C           3.4007   -2.3756    0.0000 C.ar    1  UNL1        0.1343
     38 C           5.1928   -3.4102    0.0000 C.ar    1  UNL1        0.0227
     39 C          13.0369    2.1005    0.0000 C.ar    1  UNL1        0.1653
     40 C          12.1651    0.6038    0.0000 C.ar    1  UNL1        0.1653
     41 C          13.0331    1.1005    0.0000 C.ar    1  UNL1        0.2010
     42 C           4.2947   -3.9380    0.0000 C.ar    1  UNL1        0.1271
     43 C           3.3926   -3.4172    0.0000 C.ar    1  UNL1        0.0225
     44 C           5.1767    2.6313    0.0000 C.3     1  UNL1        0.0788
     45 C          10.3728    0.6313    0.0000 C.3     1  UNL1        0.0790
     46 C           9.5068   -1.8687    0.0000 C.3     1  UNL1        0.0790
     47 C          13.9087    3.5971    0.0000 C.3     1  UNL1        0.0790
     48 C          13.0254   -0.8995    0.0000 C.3     1  UNL1        0.0790
     49 C           3.4345   -5.4413    0.0000 C.3     1  UNL1        0.0788
     50 H          10.9783    2.9194    0.0000 H       1  UNL1        0.0789
     51 H           6.0427   -0.2487    0.0000 H       1  UNL1        0.0789
     52 H          11.0517    3.5460    0.0000 H       1  UNL1        0.0385
     53 H          10.6499    4.2358    0.0000 H       1  UNL1        0.0385
     54 H           5.5752    0.1062    0.0000 H       1  UNL1        0.0385
     55 H           4.7782    0.1062    0.0000 H       1  UNL1        0.0385
     56 H           6.3718    0.9413    0.0000 H       1  UNL1        0.0629
     57 H           7.7748   -1.4887    0.0000 H       1  UNL1        0.0659
     58 H           6.3718    3.9413    0.0000 H       1  UNL1        0.0691
     59 H          10.7629    0.7992    0.0000 H       1  UNL1        0.0659
     60 H          12.1752    3.2238    0.0000 H       1  UNL1        0.0659
     61 H           5.7332   -3.7140    0.0000 H       1  UNL1        0.0691
     62 H           2.8545   -3.7251    0.0000 H       1  UNL1        0.0691
     63 H           7.2378    5.4413    0.0000 H       1  UNL1        0.2922
     64 H           5.4867    3.1682    0.0000 H       1  UNL1        0.0660
     65 H           4.6398    2.9413    0.0000 H       1  UNL1        0.0660
     66 H           4.8667    2.0944    0.0000 H       1  UNL1        0.0660
     67 H          10.0628    0.0944    0.0000 H       1  UNL1        0.0660
     68 H          10.9098    0.3213    0.0000 H       1  UNL1        0.0660
     69 H          10.6828    1.1682    0.0000 H       1  UNL1        0.0660
     70 H           8.8868   -1.8687    0.0000 H       1  UNL1        0.0660
     71 H           9.5068   -2.4887    0.0000 H       1  UNL1        0.0660
     72 H          10.1268   -1.8687    0.0000 H       1  UNL1        0.0660
     73 H           2.0000   -2.1693    0.0000 H       1  UNL1        0.2922
     74 H          14.4353    0.9051    0.0000 H       1  UNL1        0.2924
     75 H          14.5287    3.5947    0.0000 H       1  UNL1        0.0660
     76 H          13.9111    4.2171    0.0000 H       1  UNL1        0.0660
     77 H          13.2887    3.5995    0.0000 H       1  UNL1        0.0660
     78 H          12.7133   -1.4352    0.0000 H       1  UNL1        0.0660
     79 H          13.5611   -1.2116    0.0000 H       1  UNL1        0.0660
     80 H          13.3374   -0.3638    0.0000 H       1  UNL1        0.0660
     81 H           3.1224   -4.9056    0.0000 H       1  UNL1        0.0660
     82 H           2.8988   -5.7534    0.0000 H       1  UNL1        0.0660
     83 H           3.7466   -5.9770    0.0000 H       1  UNL1        0.0660
@<TRIPOS>BOND
     1     1    14    1
     2     1    16    1
     3     2    15    1
     4     2    33    1
     5     3    26    1
     6     3    44    1
     7     4    27    1
     8     4    45    1
     9     5    23    2
    10     6    32    1
    11     6    46    1
    12     7    28    1
    13     7    63    1
    14     8    30    2
    15     9    39    1
    16     9    47    1
    17    10    40    1
    18    10    48    1
    19    11    37    1
    20    11    73    1
    21    12    42    1
    22    12    49    1
    23    13    41    1
    24    13    74    1
    25    14    17    1
    26    14    25    1
    27    14    50    1
    28    15    19    1
    29    15    22    1
    30    15    51    1
    31    16    18   ar
    32    16    20   ar
    33    17    23    1
    34    17    52    1
    35    17    53    1
    36    18    21    1
    37    18    26   ar
    38    19    24   ar
    39    19    29   ar
    40    20    23    1
    41    20    28   ar
    42    21    24   ar
    43    21    27   ar
    44    22    30    1
    45    22    54    1
    46    22    55    1
    47    24    56    1
    48    25    35   ar
    49    25    36   ar
    50    26    34   ar
    51    27    32   ar
    52    28    34   ar
    53    29    32   ar
    54    29    57    1
    55    30    31    1
    56    31    33   ar
    57    31    37   ar
    58    33    38   ar
    59    34    58    1
    60    35    40   ar
    61    35    59    1
    62    36    39   ar
    63    36    60    1
    64    37    43   ar
    65    38    42   ar
    66    38    61    1
    67    39    41   ar
    68    40    41   ar
    69    42    43   ar
    70    43    62    1
    71    44    64    1
    72    44    65    1
    73    44    66    1
    74    45    67    1
    75    45    68    1
    76    45    69    1
    77    46    70    1
    78    46    71    1
    79    46    72    1
    80    47    75    1
    81    47    76    1
    82    47    77    1
    83    48    78    1
    84    48    79    1
    85    48    80    1
    86    49    81    1
    87    49    82    1
    88    49    83    1
