@<TRIPOS>MOLECULE
IMPHY015166
 28 27 0 0 0
SMALL
GASTEIGER

@<TRIPOS>ATOM
      1 C           3.7320   -0.2500    0.0000 C.3     1  UNL1       -0.0022
      2 C           4.5981    0.2500    0.0000 C.2     1  UNL1       -0.0671
      3 C           2.8660    0.2500    0.0000 C.2     1  UNL1       -0.0729
      4 C           5.4641   -0.2500    0.0000 C.2     1  UNL1       -0.0762
      5 C           3.7320   -1.2500    0.0000 C.3     1  UNL1       -0.0550
      6 C           4.5981    1.2500    0.0000 C.3     1  UNL1       -0.0430
      7 C           2.0000   -0.2500    0.0000 C.3     1  UNL1       -0.0435
      8 C           6.3301    0.2500    0.0000 C.3     1  UNL1       -0.0438
      9 C           5.4641   -1.2500    0.0000 C.3     1  UNL1       -0.0438
     10 C           2.8660    1.2500    0.0000 C.2     1  UNL1       -0.0992
     11 H           4.2690   -0.5600    0.0000 H       1  UNL1        0.0388
     12 H           3.1120   -1.2500    0.0000 H       1  UNL1        0.0238
     13 H           3.7320   -1.8700    0.0000 H       1  UNL1        0.0238
     14 H           4.3520   -1.2500    0.0000 H       1  UNL1        0.0238
     15 H           5.2181    1.2500    0.0000 H       1  UNL1        0.0275
     16 H           4.5981    1.8700    0.0000 H       1  UNL1        0.0275
     17 H           3.9781    1.2500    0.0000 H       1  UNL1        0.0275
     18 H           1.6900    0.2869    0.0000 H       1  UNL1        0.0274
     19 H           1.4631   -0.5600    0.0000 H       1  UNL1        0.0274
     20 H           2.3100   -0.7869    0.0000 H       1  UNL1        0.0274
     21 H           6.6401   -0.2869    0.0000 H       1  UNL1        0.0274
     22 H           6.8671    0.5600    0.0000 H       1  UNL1        0.0274
     23 H           6.0201    0.7869    0.0000 H       1  UNL1        0.0274
     24 H           4.8441   -1.2500    0.0000 H       1  UNL1        0.0274
     25 H           5.4641   -1.8700    0.0000 H       1  UNL1        0.0274
     26 H           6.0841   -1.2500    0.0000 H       1  UNL1        0.0274
     27 H           3.4030    1.5600    0.0000 H       1  UNL1        0.0534
     28 H           2.3291    1.5600    0.0000 H       1  UNL1        0.0534
@<TRIPOS>BOND
     1     1     2    1
     2     1     3    1
     3     1     5    1
     4     1    11    1
     5     2     4    2
     6     2     6    1
     7     3     7    1
     8     3    10    2
     9     4     8    1
    10     4     9    1
    11     5    12    1
    12     5    13    1
    13     5    14    1
    14     6    15    1
    15     6    16    1
    16     6    17    1
    17     7    18    1
    18     7    19    1
    19     7    20    1
    20     8    21    1
    21     8    22    1
    22     8    23    1
    23     9    24    1
    24     9    25    1
    25     9    26    1
    26    10    27    1
    27    10    28    1
