@<TRIPOS>MOLECULE
IMPHY009150
 122 128 0 0 0
SMALL
GASTEIGER

@<TRIPOS>ATOM
      1 O           6.0010   -3.1428    0.0000 O.3     1  UNL1       -0.3449
      2 O           8.5235    3.1561    0.0000 O.3     1  UNL1       -0.4316
      3 O           8.6522    1.7477    0.0000 O.2     1  UNL1       -0.2498
      4 O           7.7548    6.1366    0.0000 O.3     1  UNL1       -0.4802
      5 O           8.6382    4.6467    0.0000 O.2     1  UNL1       -0.2504
      6 O           4.2690   -3.1428    0.0000 O.3     1  UNL1       -0.3431
      7 O           9.8546    2.0478    0.0000 O.3     1  UNL1       -0.3312
      8 O           6.0010   -5.1428    0.0000 O.3     1  UNL1       -0.3841
      9 O           9.8032    4.6931    0.0000 O.3     1  UNL1       -0.3829
     10 O           4.2690   -6.1428    0.0000 O.3     1  UNL1       -0.3864
     11 O           2.5369   -5.1428    0.0000 O.3     1  UNL1       -0.3866
     12 O          11.7741    4.3534    0.0000 O.3     1  UNL1       -0.3864
     13 O          12.4654    2.4767    0.0000 O.3     1  UNL1       -0.3865
     14 O          12.1712    0.7698    0.0000 O.3     1  UNL1       -0.3924
     15 C           6.9021    1.5574    0.0000 C.3     1  UNL1       -0.0090
     16 C           6.0260    0.0125    0.0000 C.3     1  UNL1       -0.0249
     17 C           6.0380    1.0541    0.0000 C.3     1  UNL1       -0.0252
     18 C           6.8982    2.5574    0.0000 C.3     1  UNL1        0.0946
     19 C           6.9260   -0.5118    0.0000 C.3     1  UNL1       -0.0278
     20 C           7.8140    1.0541    0.0000 C.3     1  UNL1       -0.0457
     21 C           6.9386   -1.5967    0.0000 C.3     1  UNL1       -0.0052
     22 C           7.8261    0.0125    0.0000 C.3     1  UNL1       -0.0486
     23 C           6.0303    3.0541    0.0000 C.2     1  UNL1       -0.0518
     24 C           6.0102    4.0955    0.0000 C.3     1  UNL1       -0.0003
     25 C           5.0761   -0.5118    0.0000 C.3     1  UNL1       -0.0447
     26 C           5.1701    1.5507    0.0000 C.3     1  UNL1       -0.0306
     27 C           7.8063    3.0678    0.0000 C.3     1  UNL1       -0.0319
     28 C           6.9062    4.6267    0.0000 C.3     1  UNL1        0.0744
     29 C           6.0010   -2.1428    0.0000 C.3     1  UNL1        0.0672
     30 C           7.8862    1.7348    0.0000 C.3     1  UNL1       -0.0580
     31 C           7.8103    4.1094    0.0000 C.3     1  UNL1       -0.0354
     32 C           5.1619    0.5158    0.0000 C.3     1  UNL1       -0.0590
     33 C           5.0635   -1.5967    0.0000 C.3     1  UNL1       -0.0255
     34 C           5.1662    2.5507    0.0000 C.2     1  UNL1       -0.0831
     35 C           5.0563    4.6124    0.0000 C.3     1  UNL1       -0.0337
     36 C           7.8837    2.3876    0.0000 C.2     1  UNL1        0.3202
     37 C           6.9104    5.7117    0.0000 C.3     1  UNL1       -0.0364
     38 C           5.0354    5.6972    0.0000 C.3     1  UNL1       -0.0407
     39 C           7.9385   -1.5890    0.0000 C.3     1  UNL1       -0.0572
     40 C           7.4452   -2.4588    0.0000 C.3     1  UNL1       -0.0572
     41 C           5.9687    6.2506    0.0000 C.3     1  UNL1       -0.0492
     42 C           7.7664    5.1367    0.0000 C.2     1  UNL1        0.3115
     43 C           4.2021    4.0926    0.0000 C.3     1  UNL1       -0.0616
     44 C           4.1618    6.1838    0.0000 C.3     1  UNL1       -0.0622
     45 C           5.1350   -3.6428    0.0000 C.3     1  UNL1        0.1881
     46 C           9.5090    2.9862    0.0000 C.3     1  UNL1        0.2338
     47 C           5.1350   -4.6428    0.0000 C.3     1  UNL1        0.1341
     48 C          10.1488    3.7547    0.0000 C.3     1  UNL1        0.1455
     49 C           4.2690   -5.1428    0.0000 C.3     1  UNL1        0.1140
     50 C           3.4030   -3.6428    0.0000 C.3     1  UNL1        0.0873
     51 C           3.4030   -4.6428    0.0000 C.3     1  UNL1        0.1095
     52 C          11.1343    3.5849    0.0000 C.3     1  UNL1        0.1152
     53 C          10.8401    1.8780    0.0000 C.3     1  UNL1        0.1140
     54 C          11.4800    2.6465    0.0000 C.3     1  UNL1        0.1120
     55 C           2.5369   -3.1428    0.0000 C.3     1  UNL1       -0.0361
     56 C          11.1858    0.9396    0.0000 C.3     1  UNL1        0.0731
     57 H           6.7725    0.6262    0.0000 H       1  UNL1        0.0315
     58 H           7.6654   -0.9311    0.0000 H       1  UNL1        0.0312
     59 H           8.4261    0.9551    0.0000 H       1  UNL1        0.0271
     60 H           8.0163    1.6402    0.0000 H       1  UNL1        0.0271
     61 H           8.0419   -0.5687    0.0000 H       1  UNL1        0.0268
     62 H           8.4357    0.1257    0.0000 H       1  UNL1        0.0268
     63 H           5.2841    3.6536    0.0000 H       1  UNL1        0.0359
     64 H           4.8738    0.0743    0.0000 H       1  UNL1        0.0271
     65 H           4.4640   -0.6108    0.0000 H       1  UNL1        0.0271
     66 H           4.5591    1.6560    0.0000 H       1  UNL1        0.0310
     67 H           4.9602    0.9673    0.0000 H       1  UNL1        0.0310
     68 H           8.0131    2.4833    0.0000 H       1  UNL1        0.0279
     69 H           8.4175    3.1715    0.0000 H       1  UNL1        0.0279
     70 H           6.5386   -2.4518    0.0000 H       1  UNL1        0.0602
     71 H           7.9962    1.1247    0.0000 H       1  UNL1        0.0236
     72 H           8.4964    1.8449    0.0000 H       1  UNL1        0.0236
     73 H           7.7762    2.3450    0.0000 H       1  UNL1        0.0236
     74 H           8.4207    4.0009    0.0000 H       1  UNL1        0.0276
     75 H           8.0216    4.6923    0.0000 H       1  UNL1        0.0276
     76 H           5.4739    1.0516    0.0000 H       1  UNL1        0.0235
     77 H           4.6261    0.8279    0.0000 H       1  UNL1        0.0235
     78 H           4.8498   -0.0199    0.0000 H       1  UNL1        0.0235
     79 H           4.4539   -1.4836    0.0000 H       1  UNL1        0.0290
     80 H           4.8477   -2.1779    0.0000 H       1  UNL1        0.0290
     81 H           4.6281    2.8586    0.0000 H       1  UNL1        0.0572
     82 H           5.0718    3.9926    0.0000 H       1  UNL1        0.0307
     83 H           7.5208    5.6032    0.0000 H       1  UNL1        0.0276
     84 H           7.1217    6.2946    0.0000 H       1  UNL1        0.0276
     85 H           5.0270    6.3172    0.0000 H       1  UNL1        0.0301
     86 H           7.9433   -2.2090    0.0000 H       1  UNL1        0.0236
     87 H           8.5585   -1.5842    0.0000 H       1  UNL1        0.0236
     88 H           7.9338   -0.9690    0.0000 H       1  UNL1        0.0236
     89 H           6.9107   -2.7730    0.0000 H       1  UNL1        0.0236
     90 H           7.7594   -2.9934    0.0000 H       1  UNL1        0.0236
     91 H           7.9798   -2.1447    0.0000 H       1  UNL1        0.0236
     92 H           6.3642    6.7281    0.0000 H       1  UNL1        0.0268
     93 H           5.5659    6.7219    0.0000 H       1  UNL1        0.0268
     94 H           3.8797    4.6222    0.0000 H       1  UNL1        0.0233
     95 H           3.6724    3.7702    0.0000 H       1  UNL1        0.0233
     96 H           4.5244    3.5629    0.0000 H       1  UNL1        0.0233
     97 H           4.4634    6.7255    0.0000 H       1  UNL1        0.0233
     98 H           3.6201    6.4855    0.0000 H       1  UNL1        0.0233
     99 H           3.8601    5.6422    0.0000 H       1  UNL1        0.0233
    100 H           5.6720   -3.9528    0.0000 H       1  UNL1        0.0937
    101 H           9.2947    3.5680    0.0000 H       1  UNL1        0.1085
    102 H           8.2882    6.4528    0.0000 H       1  UNL1        0.2951
    103 H           5.1350   -5.2628    0.0000 H       1  UNL1        0.0671
    104 H          10.5455    4.2312    0.0000 H       1  UNL1        0.0683
    105 H           3.7320   -5.4528    0.0000 H       1  UNL1        0.0648
    106 H           3.4030   -3.0228    0.0000 H       1  UNL1        0.0621
    107 H           2.8660   -4.3328    0.0000 H       1  UNL1        0.0646
    108 H          11.7453    3.4796    0.0000 H       1  UNL1        0.0648
    109 H          10.4434    1.4015    0.0000 H       1  UNL1        0.0647
    110 H          11.6942    2.0647    0.0000 H       1  UNL1        0.0647
    111 H           6.0010   -5.7628    0.0000 H       1  UNL1        0.2101
    112 H           2.8469   -2.6059    0.0000 H       1  UNL1        0.0255
    113 H           2.0000   -2.8328    0.0000 H       1  UNL1        0.0255
    114 H           2.2269   -3.6798    0.0000 H       1  UNL1        0.0255
    115 H          10.1999    5.1696    0.0000 H       1  UNL1        0.2102
    116 H           3.7320   -6.4528    0.0000 H       1  UNL1        0.2100
    117 H          10.5756    0.8296    0.0000 H       1  UNL1        0.0584
    118 H          11.1882    0.3196    0.0000 H       1  UNL1        0.0584
    119 H           2.0000   -4.8328    0.0000 H       1  UNL1        0.2100
    120 H          12.3851    4.2481    0.0000 H       1  UNL1        0.2100
    121 H          12.8621    2.9531    0.0000 H       1  UNL1        0.2100
    122 H          12.3855    0.1880    0.0000 H       1  UNL1        0.2095
@<TRIPOS>BOND
     1    29     1    1
     2    45     1    1
     3     2    36    1
     4    46     2    1
     5     3    36    2
     6     4    42    1
     7     4   102    1
     8     5    42    2
     9     6    45    1
    10     6    50    1
    11     7    46    1
    12     7    53    1
    13    47     8    1
    14     8   111    1
    15    48     9    1
    16     9   115    1
    17    49    10    1
    18    10   116    1
    19    51    11    1
    20    11   119    1
    21    52    12    1
    22    12   120    1
    23    54    13    1
    24    13   121    1
    25    14    56    1
    26    14   122    1
    27    15    17    1
    28    15    18    1
    29    15    20    1
    30    15    30    1
    31    16    17    1
    32    16    19    1
    33    16    25    1
    34    16    32    1
    35    17    26    1
    36    17    57    1
    37    18    23    1
    38    18    27    1
    39    18    36    1
    40    19    21    1
    41    19    22    1
    42    19    58    1
    43    20    22    1
    44    20    59    1
    45    20    60    1
    46    21    29    1
    47    21    39    1
    48    21    40    1
    49    22    61    1
    50    22    62    1
    51    23    24    1
    52    23    34    2
    53    24    28    1
    54    24    35    1
    55    24    63    1
    56    25    33    1
    57    25    64    1
    58    25    65    1
    59    26    34    1
    60    26    66    1
    61    26    67    1
    62    27    31    1
    63    27    68    1
    64    27    69    1
    65    28    31    1
    66    28    37    1
    67    28    42    1
    68    29    33    1
    69    29    70    1
    70    30    71    1
    71    30    72    1
    72    30    73    1
    73    31    74    1
    74    31    75    1
    75    32    76    1
    76    32    77    1
    77    32    78    1
    78    33    79    1
    79    33    80    1
    80    34    81    1
    81    35    38    1
    82    35    43    1
    83    35    82    1
    84    37    41    1
    85    37    83    1
    86    37    84    1
    87    38    41    1
    88    38    44    1
    89    38    85    1
    90    39    86    1
    91    39    87    1
    92    39    88    1
    93    40    89    1
    94    40    90    1
    95    40    91    1
    96    41    92    1
    97    41    93    1
    98    43    94    1
    99    43    95    1
   100    43    96    1
   101    44    97    1
   102    44    98    1
   103    44    99    1
   104    45    47    1
   105    45   100    1
   106    46    48    1
   107    46   101    1
   108    47    49    1
   109    47   103    1
   110    48    52    1
   111    48   104    1
   112    49    51    1
   113    49   105    1
   114    50    51    1
   115    50    55    1
   116    50   106    1
   117    51   107    1
   118    52    54    1
   119    52   108    1
   120    53    54    1
   121    53    56    1
   122    53   109    1
   123    54   110    1
   124    55   112    1
   125    55   113    1
   126    55   114    1
   127    56   117    1
   128    56   118    1
