@<TRIPOS>MOLECULE
IMPHY003617
 90 89 0 0 0
SMALL
GASTEIGER

@<TRIPOS>ATOM
      1 O          14.1244   -0.5950    0.0000 O.3     1  UNL1       -0.3918
      2 C          14.1244    0.4050    0.0000 C.3     1  UNL1        0.0553
      3 C          14.9904    0.9050    0.0000 C.3     1  UNL1       -0.0269
      4 C          13.2583    0.9050    0.0000 C.3     1  UNL1       -0.0269
      5 C          15.8564    0.4050    0.0000 C.3     1  UNL1       -0.0507
      6 C          12.3923    0.4050    0.0000 C.3     1  UNL1       -0.0507
      7 C          16.7224    0.9050    0.0000 C.3     1  UNL1       -0.0530
      8 C          11.5263    0.9050    0.0000 C.3     1  UNL1       -0.0530
      9 C          17.5885    0.4050    0.0000 C.3     1  UNL1       -0.0531
     10 C          10.6603    0.4050    0.0000 C.3     1  UNL1       -0.0531
     11 C           9.7942    0.9050    0.0000 C.3     1  UNL1       -0.0531
     12 C          18.4545    0.9050    0.0000 C.3     1  UNL1       -0.0531
     13 C          19.3205    0.4050    0.0000 C.3     1  UNL1       -0.0531
     14 C           8.9282    0.4050    0.0000 C.3     1  UNL1       -0.0531
     15 C          20.1865    0.9050    0.0000 C.3     1  UNL1       -0.0531
     16 C           8.0622    0.9050    0.0000 C.3     1  UNL1       -0.0531
     17 C          21.0526    0.4050    0.0000 C.3     1  UNL1       -0.0531
     18 C           7.1962    0.4050    0.0000 C.3     1  UNL1       -0.0531
     19 C          21.9186    0.9050    0.0000 C.3     1  UNL1       -0.0531
     20 C           6.3301    0.9050    0.0000 C.3     1  UNL1       -0.0531
     21 C          22.7846    0.4050    0.0000 C.3     1  UNL1       -0.0531
     22 C           5.4641    0.4050    0.0000 C.3     1  UNL1       -0.0531
     23 C           4.5981    0.9050    0.0000 C.3     1  UNL1       -0.0531
     24 C          23.6506    0.9050    0.0000 C.3     1  UNL1       -0.0531
     25 C          24.5167    0.4050    0.0000 C.3     1  UNL1       -0.0533
     26 C           3.7320    0.4050    0.0000 C.3     1  UNL1       -0.0533
     27 C          25.3827    0.9050    0.0000 C.3     1  UNL1       -0.0559
     28 C           2.8660    0.9050    0.0000 C.3     1  UNL1       -0.0559
     29 C          26.2487    0.4050    0.0000 C.3     1  UNL1       -0.0653
     30 C           2.0000    0.4050    0.0000 C.3     1  UNL1       -0.0653
     31 H          13.5874    0.0950    0.0000 H       1  UNL1        0.0593
     32 H          13.6569    1.3800    0.0000 H       1  UNL1        0.0290
     33 H          12.8598    1.3800    0.0000 H       1  UNL1        0.0290
     34 H          15.3889    1.3800    0.0000 H       1  UNL1        0.0290
     35 H          14.5919    1.3800    0.0000 H       1  UNL1        0.0290
     36 H          15.4579   -0.0699    0.0000 H       1  UNL1        0.0266
     37 H          16.2549   -0.0699    0.0000 H       1  UNL1        0.0266
     38 H          11.9938   -0.0699    0.0000 H       1  UNL1        0.0266
     39 H          12.7908   -0.0699    0.0000 H       1  UNL1        0.0266
     40 H          17.1210    1.3800    0.0000 H       1  UNL1        0.0265
     41 H          16.3239    1.3800    0.0000 H       1  UNL1        0.0265
     42 H          11.9248    1.3800    0.0000 H       1  UNL1        0.0265
     43 H          11.1278    1.3800    0.0000 H       1  UNL1        0.0265
     44 H          10.2617   -0.0699    0.0000 H       1  UNL1        0.0265
     45 H          11.0588   -0.0699    0.0000 H       1  UNL1        0.0265
     46 H          17.1899   -0.0699    0.0000 H       1  UNL1        0.0265
     47 H          17.9870   -0.0699    0.0000 H       1  UNL1        0.0265
     48 H          18.8530    1.3800    0.0000 H       1  UNL1        0.0265
     49 H          18.0560    1.3800    0.0000 H       1  UNL1        0.0265
     50 H          10.1928    1.3800    0.0000 H       1  UNL1        0.0265
     51 H           9.3957    1.3800    0.0000 H       1  UNL1        0.0265
     52 H          18.9220   -0.0699    0.0000 H       1  UNL1        0.0265
     53 H          19.7190   -0.0699    0.0000 H       1  UNL1        0.0265
     54 H           8.5297   -0.0699    0.0000 H       1  UNL1        0.0265
     55 H           9.3267   -0.0699    0.0000 H       1  UNL1        0.0265
     56 H           8.4607    1.3800    0.0000 H       1  UNL1        0.0265
     57 H           7.6636    1.3800    0.0000 H       1  UNL1        0.0265
     58 H          20.5851    1.3800    0.0000 H       1  UNL1        0.0265
     59 H          19.7880    1.3800    0.0000 H       1  UNL1        0.0265
     60 H          20.6540   -0.0699    0.0000 H       1  UNL1        0.0265
     61 H          21.4511   -0.0699    0.0000 H       1  UNL1        0.0265
     62 H           6.7976   -0.0699    0.0000 H       1  UNL1        0.0265
     63 H           7.5947   -0.0699    0.0000 H       1  UNL1        0.0265
     64 H          22.3171    1.3800    0.0000 H       1  UNL1        0.0265
     65 H          21.5201    1.3800    0.0000 H       1  UNL1        0.0265
     66 H           6.7287    1.3800    0.0000 H       1  UNL1        0.0265
     67 H           5.9316    1.3800    0.0000 H       1  UNL1        0.0265
     68 H           5.0656   -0.0699    0.0000 H       1  UNL1        0.0265
     69 H           5.8626   -0.0699    0.0000 H       1  UNL1        0.0265
     70 H          22.3861   -0.0699    0.0000 H       1  UNL1        0.0265
     71 H          23.1831   -0.0699    0.0000 H       1  UNL1        0.0265
     72 H          24.0492    1.3800    0.0000 H       1  UNL1        0.0265
     73 H          23.2521    1.3800    0.0000 H       1  UNL1        0.0265
     74 H           4.9966    1.3800    0.0000 H       1  UNL1        0.0265
     75 H           4.1996    1.3800    0.0000 H       1  UNL1        0.0265
     76 H          13.5874   -0.9050    0.0000 H       1  UNL1        0.2098
     77 H          24.1181   -0.0699    0.0000 H       1  UNL1        0.0265
     78 H          24.9152   -0.0699    0.0000 H       1  UNL1        0.0265
     79 H           3.3335   -0.0699    0.0000 H       1  UNL1        0.0265
     80 H           4.1306   -0.0699    0.0000 H       1  UNL1        0.0265
     81 H           3.2646    1.3800    0.0000 H       1  UNL1        0.0263
     82 H           2.4675    1.3800    0.0000 H       1  UNL1        0.0263
     83 H          25.7812    1.3800    0.0000 H       1  UNL1        0.0263
     84 H          24.9842    1.3800    0.0000 H       1  UNL1        0.0263
     85 H          25.9387   -0.1319    0.0000 H       1  UNL1        0.0230
     86 H          26.7856    0.0950    0.0000 H       1  UNL1        0.0230
     87 H          26.5587    0.9419    0.0000 H       1  UNL1        0.0230
     88 H           1.6900    0.9419    0.0000 H       1  UNL1        0.0230
     89 H           1.4631    0.0950    0.0000 H       1  UNL1        0.0230
     90 H           2.3100   -0.1319    0.0000 H       1  UNL1        0.0230
@<TRIPOS>BOND
     1     1     2    1
     2     1    76    1
     3     2     3    1
     4     2     4    1
     5     2    31    1
     6     3     5    1
     7     3    34    1
     8     3    35    1
     9     4     6    1
    10     4    32    1
    11     4    33    1
    12     5     7    1
    13     5    36    1
    14     5    37    1
    15     6     8    1
    16     6    38    1
    17     6    39    1
    18     7     9    1
    19     7    40    1
    20     7    41    1
    21     8    10    1
    22     8    42    1
    23     8    43    1
    24     9    12    1
    25     9    46    1
    26     9    47    1
    27    10    11    1
    28    10    44    1
    29    10    45    1
    30    11    14    1
    31    11    50    1
    32    11    51    1
    33    12    13    1
    34    12    48    1
    35    12    49    1
    36    13    15    1
    37    13    52    1
    38    13    53    1
    39    14    16    1
    40    14    54    1
    41    14    55    1
    42    15    17    1
    43    15    58    1
    44    15    59    1
    45    16    18    1
    46    16    56    1
    47    16    57    1
    48    17    19    1
    49    17    60    1
    50    17    61    1
    51    18    20    1
    52    18    62    1
    53    18    63    1
    54    19    21    1
    55    19    64    1
    56    19    65    1
    57    20    22    1
    58    20    66    1
    59    20    67    1
    60    21    24    1
    61    21    70    1
    62    21    71    1
    63    22    23    1
    64    22    68    1
    65    22    69    1
    66    23    26    1
    67    23    74    1
    68    23    75    1
    69    24    25    1
    70    24    72    1
    71    24    73    1
    72    25    27    1
    73    25    77    1
    74    25    78    1
    75    26    28    1
    76    26    79    1
    77    26    80    1
    78    27    29    1
    79    27    83    1
    80    27    84    1
    81    28    30    1
    82    28    81    1
    83    28    82    1
    84    29    85    1
    85    29    86    1
    86    29    87    1
    87    30    88    1
    88    30    89    1
    89    30    90    1
