@<TRIPOS>MOLECULE
IMPHY011724
 53 53 0 0 0
SMALL
GASTEIGER

@<TRIPOS>ATOM
      1 O           9.4282   -4.3380    0.0000 O.3     1  UNL1       -0.3679
      2 O           2.8660    4.0280    0.0000 O.3     1  UNL1       -0.4806
      3 O           2.0000    2.5280    0.0000 O.2     1  UNL1       -0.2510
      4 C           9.9282   -3.4720    0.0000 C.3     1  UNL1        0.0855
      5 C           8.9282   -3.4720    0.0000 C.3     1  UNL1        0.0886
      6 C          10.7942   -2.9720    0.0000 C.3     1  UNL1       -0.0241
      7 C           8.0622   -2.9720    0.0000 C.3     1  UNL1       -0.0059
      8 C          11.6603   -3.4720    0.0000 C.3     1  UNL1       -0.0506
      9 C          12.5263   -2.9720    0.0000 C.3     1  UNL1       -0.0532
     10 C           7.1962   -3.4720    0.0000 C.2     1  UNL1       -0.0854
     11 C          13.3923   -3.4720    0.0000 C.3     1  UNL1       -0.0559
     12 C           6.3301   -2.9720    0.0000 C.2     1  UNL1       -0.0878
     13 C           6.3301   -1.9720    0.0000 C.3     1  UNL1       -0.0348
     14 C           5.4641   -1.4720    0.0000 C.3     1  UNL1       -0.0496
     15 C           5.4641   -0.4720    0.0000 C.3     1  UNL1       -0.0528
     16 C           4.5981    0.0280    0.0000 C.3     1  UNL1       -0.0530
     17 C           4.5981    1.0280    0.0000 C.3     1  UNL1       -0.0526
     18 C          14.2583   -2.9720    0.0000 C.3     1  UNL1       -0.0653
     19 C           3.7320    1.5280    0.0000 C.3     1  UNL1       -0.0430
     20 C           3.7320    2.5280    0.0000 C.3     1  UNL1        0.0448
     21 C           2.8660    3.0280    0.0000 C.2     1  UNL1        0.3047
     22 H          10.3666   -3.9104    0.0000 H       1  UNL1        0.0622
     23 H           8.4898   -3.9104    0.0000 H       1  UNL1        0.0625
     24 H          11.1928   -2.4970    0.0000 H       1  UNL1        0.0291
     25 H          10.3957   -2.4970    0.0000 H       1  UNL1        0.0291
     26 H           8.4607   -2.4970    0.0000 H       1  UNL1        0.0333
     27 H           7.6636   -2.4970    0.0000 H       1  UNL1        0.0333
     28 H          11.2617   -3.9469    0.0000 H       1  UNL1        0.0266
     29 H          12.0588   -3.9469    0.0000 H       1  UNL1        0.0266
     30 H          12.9248   -2.4970    0.0000 H       1  UNL1        0.0265
     31 H          12.1278   -2.4970    0.0000 H       1  UNL1        0.0265
     32 H           7.1962   -4.0920    0.0000 H       1  UNL1        0.0570
     33 H          12.9938   -3.9469    0.0000 H       1  UNL1        0.0263
     34 H          13.7908   -3.9469    0.0000 H       1  UNL1        0.0263
     35 H           5.7932   -3.2820    0.0000 H       1  UNL1        0.0569
     36 H           6.9407   -2.0796    0.0000 H       1  UNL1        0.0307
     37 H           6.5422   -1.3894    0.0000 H       1  UNL1        0.0307
     38 H           4.8535   -1.3643    0.0000 H       1  UNL1        0.0268
     39 H           5.2520   -2.0546    0.0000 H       1  UNL1        0.0268
     40 H           6.0747   -0.5796    0.0000 H       1  UNL1        0.0265
     41 H           5.6762    0.1106    0.0000 H       1  UNL1        0.0265
     42 H           3.9875    0.1357    0.0000 H       1  UNL1        0.0265
     43 H           4.3860   -0.5546    0.0000 H       1  UNL1        0.0265
     44 H           5.2087    0.9204    0.0000 H       1  UNL1        0.0265
     45 H           4.8101    1.6106    0.0000 H       1  UNL1        0.0265
     46 H          14.5683   -3.5089    0.0000 H       1  UNL1        0.0230
     47 H          14.7953   -2.6620    0.0000 H       1  UNL1        0.0230
     48 H          13.9483   -2.4350    0.0000 H       1  UNL1        0.0230
     49 H           3.1215    1.6357    0.0000 H       1  UNL1        0.0270
     50 H           3.5200    0.9454    0.0000 H       1  UNL1        0.0270
     51 H           4.3426    2.4204    0.0000 H       1  UNL1        0.0377
     52 H           3.9441    3.1106    0.0000 H       1  UNL1        0.0377
     53 H           2.3291    4.3380    0.0000 H       1  UNL1        0.2951
@<TRIPOS>BOND
     1     1     4    1
     2     1     5    1
     3     2    21    1
     4     2    53    1
     5     3    21    2
     6     4     5    1
     7     4     6    1
     8     4    22    1
     9     5     7    1
    10     5    23    1
    11     6     8    1
    12     6    24    1
    13     6    25    1
    14     7    10    1
    15     7    26    1
    16     7    27    1
    17     8     9    1
    18     8    28    1
    19     8    29    1
    20     9    11    1
    21     9    30    1
    22     9    31    1
    23    10    12    2
    24    10    32    1
    25    11    18    1
    26    11    33    1
    27    11    34    1
    28    12    13    1
    29    12    35    1
    30    13    14    1
    31    13    36    1
    32    13    37    1
    33    14    15    1
    34    14    38    1
    35    14    39    1
    36    15    16    1
    37    15    40    1
    38    15    41    1
    39    16    17    1
    40    16    42    1
    41    16    43    1
    42    17    19    1
    43    17    44    1
    44    17    45    1
    45    18    46    1
    46    18    47    1
    47    18    48    1
    48    19    20    1
    49    19    49    1
    50    19    50    1
    51    20    21    1
    52    20    51    1
    53    20    52    1
