@<TRIPOS>MOLECULE
IMPHY015138
 41 42 0 0 0
SMALL
GASTEIGER

@<TRIPOS>ATOM
      1 O           5.2107   -0.8659    0.0000 O.3     1  UNL1       -0.3721
      2 O           2.0000   -2.0580    0.0000 O.2     1  UNL1       -0.3007
      3 C           5.9926    0.7576    0.0000 C.3     1  UNL1        0.0060
      4 C           5.9926   -0.2424    0.0000 C.3     1  UNL1        0.0660
      5 C           5.2107    1.3811    0.0000 C.3     1  UNL1       -0.0352
      6 C           4.2358    1.1586    0.0000 C.3     1  UNL1       -0.0475
      7 C           6.8865   -0.7770    0.0000 C.3     1  UNL1       -0.0200
      8 C           4.2358   -0.6433    0.0000 C.3     1  UNL1        0.0680
      9 C           3.8019    0.2576    0.0000 C.3     1  UNL1       -0.0257
     10 C           7.7926   -0.2632    0.0000 C.3     1  UNL1       -0.0234
     11 C           6.8865    1.2923    0.0000 C.2     1  UNL1       -0.0819
     12 C           5.4333    2.3561    0.0000 C.3     1  UNL1       -0.0618
     13 C           7.7926    0.7784    0.0000 C.2     1  UNL1       -0.0847
     14 C           3.6123   -1.4252    0.0000 C.3     1  UNL1        0.0379
     15 C           8.6567   -0.7665    0.0000 C.3     1  UNL1       -0.0589
     16 C           3.9777   -2.3561    0.0000 C.3     1  UNL1       -0.0536
     17 C           2.6235   -1.2761    0.0000 C.2     1  UNL1        0.1256
     18 H           6.0341    1.3762    0.0000 H       1  UNL1        0.0371
     19 H           6.0341   -0.8610    0.0000 H       1  UNL1        0.0602
     20 H           4.7723    1.8195    0.0000 H       1  UNL1        0.0305
     21 H           4.2358    1.7786    0.0000 H       1  UNL1        0.0269
     22 H           3.6314    1.2966    0.0000 H       1  UNL1        0.0269
     23 H           6.4819   -1.2468    0.0000 H       1  UNL1        0.0296
     24 H           7.2801   -1.2561    0.0000 H       1  UNL1        0.0296
     25 H           4.6224   -0.1586    0.0000 H       1  UNL1        0.0603
     26 H           3.3172    0.6442    0.0000 H       1  UNL1        0.0290
     27 H           3.3172   -0.1289    0.0000 H       1  UNL1        0.0290
     28 H           7.7890   -0.8832    0.0000 H       1  UNL1        0.0341
     29 H           6.8793    1.9122    0.0000 H       1  UNL1        0.0573
     30 H           6.0377    2.2181    0.0000 H       1  UNL1        0.0233
     31 H           5.5712    2.9605    0.0000 H       1  UNL1        0.0233
     32 H           4.8288    2.4940    0.0000 H       1  UNL1        0.0233
     33 H           8.3283    1.0905    0.0000 H       1  UNL1        0.0572
     34 H           4.2254   -1.5176    0.0000 H       1  UNL1        0.0397
     35 H           8.3446   -1.3023    0.0000 H       1  UNL1        0.0235
     36 H           9.1924   -1.0786    0.0000 H       1  UNL1        0.0235
     37 H           8.9687   -0.2308    0.0000 H       1  UNL1        0.0235
     38 H           3.4005   -2.5826    0.0000 H       1  UNL1        0.0237
     39 H           4.2042   -2.9332    0.0000 H       1  UNL1        0.0237
     40 H           4.5548   -2.1295    0.0000 H       1  UNL1        0.0237
     41 H           2.3970   -0.6990    0.0000 H       1  UNL1        0.1030
@<TRIPOS>BOND
     1     1     4    1
     2     1     8    1
     3     2    17    2
     4     3     4    1
     5     3     5    1
     6     3    11    1
     7     3    18    1
     8     4     7    1
     9     4    19    1
    10     5     6    1
    11     5    12    1
    12     5    20    1
    13     6     9    1
    14     6    21    1
    15     6    22    1
    16     7    10    1
    17     7    23    1
    18     7    24    1
    19     8     9    1
    20     8    14    1
    21     8    25    1
    22     9    26    1
    23     9    27    1
    24    10    13    1
    25    10    15    1
    26    10    28    1
    27    11    13    2
    28    11    29    1
    29    12    30    1
    30    12    31    1
    31    12    32    1
    32    13    33    1
    33    14    16    1
    34    14    17    1
    35    14    34    1
    36    15    35    1
    37    15    36    1
    38    15    37    1
    39    16    38    1
    40    16    39    1
    41    16    40    1
    42    17    41    1
