@<TRIPOS>MOLECULE
IMPHY006576
 26 26 0 0 0
SMALL
GASTEIGER

@<TRIPOS>ATOM
      1 O           4.5981    1.7500    0.0000 O.3     1  UNL1       -0.4646
      2 O           2.0000    0.2500    0.0000 O.2     1  UNL1       -0.2915
      3 O           2.8660    1.7500    0.0000 O.2     1  UNL1       -0.2504
      4 C           3.7320    0.2500    0.0000 C.3     1  UNL1        0.1078
      5 C           2.8660   -1.2500    0.0000 C.ar    1  UNL1        0.0179
      6 C           2.8660   -0.2500    0.0000 C.2     1  UNL1        0.1738
      7 C           2.0000   -1.7500    0.0000 C.ar    1  UNL1       -0.0513
      8 C           3.7320   -1.7500    0.0000 C.ar    1  UNL1       -0.0513
      9 C           3.7320    1.2500    0.0000 C.2     1  UNL1        0.3147
     10 C           4.5981    2.7500    0.0000 C.3     1  UNL1        0.0897
     11 C           2.0000   -2.7500    0.0000 C.ar    1  UNL1       -0.0611
     12 C           3.7320   -2.7500    0.0000 C.ar    1  UNL1       -0.0611
     13 C           2.8660   -3.2500    0.0000 C.ar    1  UNL1       -0.0617
     14 C           5.4641    3.2500    0.0000 C.3     1  UNL1       -0.0306
     15 H           3.9441   -0.3326    0.0000 H       1  UNL1        0.0459
     16 H           4.3426    0.3577    0.0000 H       1  UNL1        0.0459
     17 H           1.4631   -1.4400    0.0000 H       1  UNL1        0.0624
     18 H           4.2690   -1.4400    0.0000 H       1  UNL1        0.0624
     19 H           4.3860    3.3326    0.0000 H       1  UNL1        0.0694
     20 H           3.9875    2.6423    0.0000 H       1  UNL1        0.0694
     21 H           1.4631   -3.0600    0.0000 H       1  UNL1        0.0618
     22 H           4.2690   -3.0600    0.0000 H       1  UNL1        0.0618
     23 H           2.8660   -3.8700    0.0000 H       1  UNL1        0.0618
     24 H           5.7741    2.7131    0.0000 H       1  UNL1        0.0262
     25 H           6.0010    3.5600    0.0000 H       1  UNL1        0.0262
     26 H           5.1541    3.7869    0.0000 H       1  UNL1        0.0262
@<TRIPOS>BOND
     1     1     9    1
     2     1    10    1
     3     2     6    2
     4     3     9    2
     5     4     6    1
     6     4     9    1
     7     4    15    1
     8     4    16    1
     9     5     6    1
    10     5     7   ar
    11     5     8   ar
    12     7    11   ar
    13     7    17    1
    14     8    12   ar
    15     8    18    1
    16    10    14    1
    17    10    19    1
    18    10    20    1
    19    11    13   ar
    20    11    21    1
    21    12    13   ar
    22    12    22    1
    23    13    23    1
    24    14    24    1
    25    14    25    1
    26    14    26    1
