@<TRIPOS>MOLECULE
IMPHY002944
 69 71 0 0 0
SMALL
GASTEIGER

@<TRIPOS>ATOM
      1 O           5.1350   -0.0600    0.0000 O.3     1  UNL1       -0.3404
      2 O           6.8671   -0.0600    0.0000 O.3     1  UNL1       -0.3061
      3 O           5.1350   -3.0600    0.0000 O.3     1  UNL1       -0.3864
      4 O           3.4030   -2.0600    0.0000 O.3     1  UNL1       -0.3865
      5 O           6.8671   -2.0600    0.0000 O.3     1  UNL1       -0.3841
      6 O           6.0010    1.4400    0.0000 O.2     1  UNL1       -0.4666
      7 O           2.5369   -0.5600    0.0000 O.3     1  UNL1       -0.3924
      8 O           9.4651   -0.5600    0.0000 O.3     1  UNL1       -0.4574
      9 O          10.0991    3.8060    0.0000 O.3     1  UNL1       -0.4679
     10 O           6.0010    4.4400    0.0000 O.3     1  UNL1       -0.4773
     11 O           7.7331    4.4400    0.0000 O.2     1  UNL1       -0.2454
     12 O          10.0991    2.0740    0.0000 O.2     1  UNL1       -0.2508
     13 O           8.5991   -2.0600    0.0000 O.2     1  UNL1       -0.2456
     14 C           5.1350   -2.0600    0.0000 C.3     1  UNL1        0.1141
     15 C           4.2690   -1.5600    0.0000 C.3     1  UNL1        0.1119
     16 C           6.0010   -1.5600    0.0000 C.3     1  UNL1        0.1343
     17 C           4.2690   -0.5600    0.0000 C.3     1  UNL1        0.1130
     18 C           6.0010   -0.5600    0.0000 C.3     1  UNL1        0.1921
     19 C           3.4030   -0.0600    0.0000 C.3     1  UNL1        0.0730
     20 C           6.8671    0.9400    0.0000 C.3     1  UNL1        0.2267
     21 C           7.7331    2.4400    0.0000 C.3     1  UNL1        0.0308
     22 C           7.7331    1.4400    0.0000 C.2     1  UNL1        0.0053
     23 C           6.8671    2.9400    0.0000 C.2     1  UNL1        0.0783
     24 C           8.5991    2.9400    0.0000 C.3     1  UNL1        0.0559
     25 C           8.5991    0.9400    0.0000 C.2     1  UNL1       -0.0413
     26 C           6.0010    2.4400    0.0000 C.2     1  UNL1        0.0988
     27 C           8.5991   -0.0600    0.0000 C.3     1  UNL1        0.1115
     28 C           6.8671    3.9400    0.0000 C.2     1  UNL1        0.3363
     29 C           9.5991    2.9400    0.0000 C.2     1  UNL1        0.3077
     30 C          11.0991    3.8060    0.0000 C.3     1  UNL1        0.0817
     31 C           9.4651   -1.5600    0.0000 C.2     1  UNL1        0.3322
     32 C          10.3312   -2.0600    0.0000 C.2     1  UNL1        0.0231
     33 C          10.3312   -3.0600    0.0000 C.2     1  UNL1       -0.0478
     34 C          11.1972   -3.5600    0.0000 C.ar    1  UNL1       -0.0248
     35 C          11.1972   -4.5600    0.0000 C.ar    1  UNL1       -0.0546
     36 C          12.0632   -3.0600    0.0000 C.ar    1  UNL1       -0.0546
     37 C          12.0632   -5.0600    0.0000 C.ar    1  UNL1       -0.0612
     38 C          12.9292   -3.5600    0.0000 C.ar    1  UNL1       -0.0612
     39 C          12.9292   -4.5600    0.0000 C.ar    1  UNL1       -0.0617
     40 H           5.6720   -2.3700    0.0000 H       1  UNL1        0.0648
     41 H           4.2690   -2.1800    0.0000 H       1  UNL1        0.0647
     42 H           6.5380   -1.2500    0.0000 H       1  UNL1        0.0671
     43 H           4.2690    0.0600    0.0000 H       1  UNL1        0.0647
     44 H           6.0010    0.0600    0.0000 H       1  UNL1        0.0939
     45 H           3.8015    0.4149    0.0000 H       1  UNL1        0.0584
     46 H           3.0044    0.4149    0.0000 H       1  UNL1        0.0584
     47 H           7.4040    0.6300    0.0000 H       1  UNL1        0.1109
     48 H           8.2700    2.1300    0.0000 H       1  UNL1        0.0404
     49 H           4.5981   -3.3700    0.0000 H       1  UNL1        0.2100
     50 H           3.4030   -2.6800    0.0000 H       1  UNL1        0.2100
     51 H           6.8671   -2.6800    0.0000 H       1  UNL1        0.2101
     52 H           8.8112    3.5226    0.0000 H       1  UNL1        0.0387
     53 H           8.7596    2.3411    0.0000 H       1  UNL1        0.0387
     54 H           9.2191    0.9400    0.0000 H       1  UNL1        0.0607
     55 H           5.4641    2.7500    0.0000 H       1  UNL1        0.1030
     56 H           2.0000   -0.2500    0.0000 H       1  UNL1        0.2095
     57 H           7.9885    0.0477    0.0000 H       1  UNL1        0.0743
     58 H           8.3871   -0.6426    0.0000 H       1  UNL1        0.0743
     59 H           6.0010    5.0600    0.0000 H       1  UNL1        0.2954
     60 H          11.0991    3.1860    0.0000 H       1  UNL1        0.0661
     61 H          11.7191    3.8060    0.0000 H       1  UNL1        0.0661
     62 H          11.0991    4.4260    0.0000 H       1  UNL1        0.0661
     63 H          10.8681   -1.7500    0.0000 H       1  UNL1        0.0689
     64 H           9.7942   -3.3700    0.0000 H       1  UNL1        0.0626
     65 H          10.6603   -4.8700    0.0000 H       1  UNL1        0.0623
     66 H          12.0632   -2.4400    0.0000 H       1  UNL1        0.0623
     67 H          12.0632   -5.6800    0.0000 H       1  UNL1        0.0618
     68 H          13.4662   -3.2500    0.0000 H       1  UNL1        0.0618
     69 H          13.4662   -4.8700    0.0000 H       1  UNL1        0.0618
@<TRIPOS>BOND
     1     1    17    1
     2     1    18    1
     3    18     2    1
     4    20     2    1
     5    14     3    1
     6     3    49    1
     7    15     4    1
     8     4    50    1
     9    16     5    1
    10     5    51    1
    11     6    20    1
    12     6    26    1
    13     7    19    1
    14     7    56    1
    15     8    27    1
    16     8    31    1
    17     9    29    1
    18     9    30    1
    19    10    28    1
    20    10    59    1
    21    11    28    2
    22    12    29    2
    23    13    31    2
    24    14    15    1
    25    14    16    1
    26    14    40    1
    27    15    17    1
    28    15    41    1
    29    16    18    1
    30    16    42    1
    31    17    19    1
    32    17    43    1
    33    18    44    1
    34    19    45    1
    35    19    46    1
    36    20    22    1
    37    20    47    1
    38    21    22    1
    39    21    23    1
    40    21    24    1
    41    21    48    1
    42    22    25    2
    43    23    26    2
    44    23    28    1
    45    24    29    1
    46    24    52    1
    47    24    53    1
    48    25    27    1
    49    25    54    1
    50    26    55    1
    51    27    57    1
    52    27    58    1
    53    30    60    1
    54    30    61    1
    55    30    62    1
    56    31    32    1
    57    32    33    2
    58    32    63    1
    59    33    34    1
    60    33    64    1
    61    34    35   ar
    62    34    36   ar
    63    35    37   ar
    64    35    65    1
    65    36    38   ar
    66    36    66    1
    67    37    39   ar
    68    37    67    1
    69    38    39   ar
    70    38    68    1
    71    39    69    1
