@<TRIPOS>MOLECULE
IMPHY014009
 29 31 0 0 0
SMALL
GASTEIGER

@<TRIPOS>ATOM
      1 O           7.3424    0.8047    0.0000 O.3     1  UNL1       -0.4838
      2 O           3.7702    1.0347    0.0000 O.2     1  UNL1       -0.4220
      3 O           2.0000    1.0241    0.0000 O.2     1  UNL1       -0.2452
      4 C           7.9260    0.0000    0.0000 C.3     1  UNL1        0.1248
      5 C           7.3424   -0.8047    0.0000 C.3     1  UNL1        0.0169
      6 C           6.3961   -0.5000    0.0000 C.ar    1  UNL1       -0.0011
      7 C           6.3961    0.5000    0.0000 C.ar    1  UNL1        0.1282
      8 C           5.5301   -1.0000    0.0000 C.ar    1  UNL1       -0.0443
      9 C           8.9260    0.0000    0.0000 C.2     1  UNL1       -0.0395
     10 C           4.6641   -0.5000    0.0000 C.ar    1  UNL1        0.0181
     11 C           5.5301    1.0000    0.0000 C.ar    1  UNL1        0.0234
     12 C           4.6641    0.5000    0.0000 C.ar    1  UNL1        0.1425
     13 C           9.4260   -0.8660    0.0000 C.3     1  UNL1       -0.0406
     14 C           3.7702   -1.0347    0.0000 C.ar    1  UNL1       -0.0443
     15 C           9.4260    0.8660    0.0000 C.2     1  UNL1       -0.0962
     16 C           2.8641   -0.5208    0.0000 C.ar    1  UNL1        0.0236
     17 C           2.8641    0.5208    0.0000 C.ar    1  UNL1        0.3372
     18 H           8.2077    0.5523    0.0000 H       1  UNL1        0.0784
     19 H           7.0913   -1.3716    0.0000 H       1  UNL1        0.0353
     20 H           7.8798   -1.1140    0.0000 H       1  UNL1        0.0353
     21 H           5.5301   -1.6200    0.0000 H       1  UNL1        0.0628
     22 H           5.5301    1.6200    0.0000 H       1  UNL1        0.0691
     23 H           8.8890   -1.1760    0.0000 H       1  UNL1        0.0275
     24 H           9.7360   -1.4030    0.0000 H       1  UNL1        0.0275
     25 H           9.9629   -0.5560    0.0000 H       1  UNL1        0.0275
     26 H           3.7773   -1.6546    0.0000 H       1  UNL1        0.0627
     27 H          10.0460    0.8660    0.0000 H       1  UNL1        0.0535
     28 H           9.1160    1.4030    0.0000 H       1  UNL1        0.0535
     29 H           2.3284   -0.8329    0.0000 H       1  UNL1        0.0689
@<TRIPOS>BOND
     1     1     4    1
     2     1     7    1
     3     2    12   ar
     4     2    17   ar
     5     3    17    2
     6     4     5    1
     7     4     9    1
     8     4    18    1
     9     5     6    1
    10     5    19    1
    11     5    20    1
    12     6     7   ar
    13     6     8   ar
    14     7    11   ar
    15     8    10   ar
    16     8    21    1
    17     9    13    1
    18     9    15    2
    19    10    12   ar
    20    10    14   ar
    21    11    12   ar
    22    11    22    1
    23    13    23    1
    24    13    24    1
    25    13    25    1
    26    14    16   ar
    27    14    26    1
    28    15    27    1
    29    15    28    1
    30    16    17   ar
    31    16    29    1
