@<TRIPOS>MOLECULE
IMPHY013688
 56 58 0 0 0
SMALL
GASTEIGER

@<TRIPOS>ATOM
      1 O           5.0366   -0.1537    0.0000 O.3     1  UNL1       -0.3636
      2 O           7.5777   -3.7415    0.0000 O.3     1  UNL1       -0.4913
      3 O           4.1136   -3.7415    0.0000 O.3     1  UNL1       -0.4913
      4 O           4.9836    4.2425    0.0000 O.3     1  UNL1       -0.4914
      5 O           2.9945    4.0334    0.0000 O.3     1  UNL1       -0.4915
      6 O           5.8457   -4.7415    0.0000 O.3     1  UNL1       -0.5009
      7 C           6.6547   -0.1537    0.0000 C.3     1  UNL1       -0.0081
      8 C           6.3457    0.7974    0.0000 C.3     1  UNL1       -0.0081
      9 C           5.8457   -0.7415    0.0000 C.3     1  UNL1        0.0875
     10 C           5.3457    0.7974    0.0000 C.3     1  UNL1        0.0874
     11 C           7.6057   -0.4627    0.0000 C.3     1  UNL1       -0.0594
     12 C           6.9334    1.6064    0.0000 C.3     1  UNL1       -0.0594
     13 C           5.8457   -1.7415    0.0000 C.ar    1  UNL1       -0.0115
     14 C           4.7579    1.6064    0.0000 C.ar    1  UNL1       -0.0149
     15 C           4.9796   -2.2415    0.0000 C.ar    1  UNL1       -0.0104
     16 C           6.7117   -2.2415    0.0000 C.ar    1  UNL1       -0.0104
     17 C           5.1646    2.5199    0.0000 C.ar    1  UNL1       -0.0107
     18 C           3.7634    1.5018    0.0000 C.ar    1  UNL1       -0.0524
     19 C           6.7117   -3.2415    0.0000 C.ar    1  UNL1        0.1653
     20 C           4.9796   -3.2415    0.0000 C.ar    1  UNL1        0.1653
     21 C           4.5768    3.3289    0.0000 C.ar    1  UNL1        0.1618
     22 C           3.1756    2.3109    0.0000 C.ar    1  UNL1       -0.0160
     23 C           5.8457   -3.7415    0.0000 C.ar    1  UNL1        0.2010
     24 C           3.5823    3.2244    0.0000 C.ar    1  UNL1        0.1615
     25 C           8.4437   -3.2415    0.0000 C.3     1  UNL1        0.0790
     26 C           3.2476   -3.2415    0.0000 C.3     1  UNL1        0.0790
     27 C           4.3958    5.0515    0.0000 C.3     1  UNL1        0.0790
     28 C           2.0000    3.9289    0.0000 C.3     1  UNL1        0.0790
     29 H           6.7517   -0.7661    0.0000 H       1  UNL1        0.0330
     30 H           6.9580    0.7004    0.0000 H       1  UNL1        0.0330
     31 H           6.3981   -1.0230    0.0000 H       1  UNL1        0.0649
     32 H           5.6271    1.3498    0.0000 H       1  UNL1        0.0649
     33 H           7.4142   -1.0524    0.0000 H       1  UNL1        0.0233
     34 H           8.1954   -0.6543    0.0000 H       1  UNL1        0.0233
     35 H           7.7973    0.1269    0.0000 H       1  UNL1        0.0233
     36 H           7.4350    1.2419    0.0000 H       1  UNL1        0.0233
     37 H           7.2979    2.1080    0.0000 H       1  UNL1        0.0233
     38 H           6.4319    1.9708    0.0000 H       1  UNL1        0.0233
     39 H           4.4427   -1.9315    0.0000 H       1  UNL1        0.0659
     40 H           7.2486   -1.9315    0.0000 H       1  UNL1        0.0659
     41 H           5.7812    2.5847    0.0000 H       1  UNL1        0.0659
     42 H           3.5112    0.9354    0.0000 H       1  UNL1        0.0622
     43 H           2.5590    2.2460    0.0000 H       1  UNL1        0.0655
     44 H           5.3087   -5.0515    0.0000 H       1  UNL1        0.2924
     45 H           8.7537   -3.7784    0.0000 H       1  UNL1        0.0660
     46 H           8.9807   -2.9315    0.0000 H       1  UNL1        0.0660
     47 H           8.1337   -2.7046    0.0000 H       1  UNL1        0.0660
     48 H           3.5576   -2.7046    0.0000 H       1  UNL1        0.0660
     49 H           2.7106   -2.9315    0.0000 H       1  UNL1        0.0660
     50 H           2.9376   -3.7784    0.0000 H       1  UNL1        0.0660
     51 H           4.8974    5.4159    0.0000 H       1  UNL1        0.0660
     52 H           4.0314    5.5531    0.0000 H       1  UNL1        0.0660
     53 H           3.8942    4.6871    0.0000 H       1  UNL1        0.0660
     54 H           1.9352    4.5455    0.0000 H       1  UNL1        0.0660
     55 H           1.3834    3.8641    0.0000 H       1  UNL1        0.0660
     56 H           2.0648    3.3123    0.0000 H       1  UNL1        0.0660
@<TRIPOS>BOND
     1     1     9    1
     2     1    10    1
     3     2    19    1
     4     2    25    1
     5     3    20    1
     6     3    26    1
     7     4    21    1
     8     4    27    1
     9     5    24    1
    10     5    28    1
    11     6    23    1
    12     6    44    1
    13     7     8    1
    14     7     9    1
    15     7    11    1
    16     7    29    1
    17     8    10    1
    18     8    12    1
    19     8    30    1
    20     9    13    1
    21     9    31    1
    22    10    14    1
    23    10    32    1
    24    11    33    1
    25    11    34    1
    26    11    35    1
    27    12    36    1
    28    12    37    1
    29    12    38    1
    30    13    15   ar
    31    13    16   ar
    32    14    17   ar
    33    14    18   ar
    34    15    20   ar
    35    15    39    1
    36    16    19   ar
    37    16    40    1
    38    17    21   ar
    39    17    41    1
    40    18    22   ar
    41    18    42    1
    42    19    23   ar
    43    20    23   ar
    44    21    24   ar
    45    22    24   ar
    46    22    43    1
    47    25    45    1
    48    25    46    1
    49    25    47    1
    50    26    48    1
    51    26    49    1
    52    26    50    1
    53    27    51    1
    54    27    52    1
    55    27    53    1
    56    28    54    1
    57    28    55    1
    58    28    56    1
