@<TRIPOS>MOLECULE
IMPHY013670
 71 74 0 0 0
SMALL
GASTEIGER

@<TRIPOS>ATOM
      1 O           4.6878    1.4152    0.0000 O.3     1  UNL1       -0.4868
      2 O           6.4704   -1.7221    0.0000 O.3     1  UNL1       -0.5055
      3 O           2.8556   -1.7360    0.0000 O.3     1  UNL1       -0.5051
      4 O           2.0000   -0.1343    0.0000 O.2     1  UNL1       -0.2955
      5 O           5.5350   -3.2785    0.0000 O.2     1  UNL1       -0.2918
      6 C           5.5978    2.9220    0.0000 C.3     1  UNL1        0.0053
      7 C           5.5976    3.9225    0.0000 C.3     1  UNL1       -0.0252
      8 C           6.4639    3.4220    0.0000 C.3     1  UNL1       -0.0285
      9 C           5.5978    1.9220    0.0000 C.3     1  UNL1        0.1094
     10 C           7.3299    2.9220    0.0000 C.3     1  UNL1       -0.0456
     11 C           6.4639    1.4220    0.0000 C.3     1  UNL1        0.0097
     12 C           6.0976    4.7885    0.0000 C.3     1  UNL1       -0.0592
     13 C           4.5976    3.9225    0.0000 C.3     1  UNL1       -0.0592
     14 C           6.4799    0.3805    0.0000 C.3     1  UNL1       -0.0119
     15 C           7.3299    1.9220    0.0000 C.3     1  UNL1       -0.0405
     16 C           8.1959    3.4220    0.0000 C.3     1  UNL1       -0.0317
     17 C           7.3299    0.9220    0.0000 C.3     1  UNL1       -0.0559
     18 C           5.5819   -0.1472    0.0000 C.ar    1  UNL1        0.0379
     19 C           4.6798    0.3736    0.0000 C.ar    1  UNL1        0.1413
     20 C           8.1959    1.4220    0.0000 C.3     1  UNL1       -0.0339
     21 C           9.0620    2.9220    0.0000 C.2     1  UNL1       -0.0765
     22 C           9.0620    1.9220    0.0000 C.2     1  UNL1       -0.0850
     23 C           5.5986   -1.2321    0.0000 C.ar    1  UNL1        0.1375
     24 C           3.7319   -0.1544    0.0000 C.ar    1  UNL1        0.0983
     25 C           9.9280    3.4220    0.0000 C.3     1  UNL1       -0.0438
     26 C           4.6632   -1.7818    0.0000 C.ar    1  UNL1        0.1012
     27 C           3.7236   -1.2393    0.0000 C.ar    1  UNL1        0.1446
     28 C           2.8718    0.3556    0.0000 C.2     1  UNL1        0.1573
     29 C           4.6671   -2.7818    0.0000 C.2     1  UNL1        0.1705
     30 C           3.8030   -3.2852    0.0000 C.3     1  UNL1        0.0130
     31 C           3.8068   -4.2852    0.0000 C.3     1  UNL1       -0.0397
     32 C           2.9427   -4.7885    0.0000 C.3     1  UNL1       -0.0623
     33 C           4.6748   -4.7818    0.0000 C.3     1  UNL1       -0.0623
     34 H           4.9778    2.9219    0.0000 H       1  UNL1        0.0345
     35 H           6.7740    3.9589    0.0000 H       1  UNL1        0.0310
     36 H           5.0633    2.2362    0.0000 H       1  UNL1        0.0741
     37 H           6.9314    2.4471    0.0000 H       1  UNL1        0.0271
     38 H           7.7284    2.4471    0.0000 H       1  UNL1        0.0271
     39 H           6.6345    4.4785    0.0000 H       1  UNL1        0.0235
     40 H           6.4076    5.3254    0.0000 H       1  UNL1        0.0235
     41 H           5.5607    5.0985    0.0000 H       1  UNL1        0.0235
     42 H           4.5976    4.5425    0.0000 H       1  UNL1        0.0235
     43 H           3.9776    3.9225    0.0000 H       1  UNL1        0.0235
     44 H           4.5976    3.3025    0.0000 H       1  UNL1        0.0235
     45 H           6.6980   -0.1999    0.0000 H       1  UNL1        0.0322
     46 H           7.0891    0.4960    0.0000 H       1  UNL1        0.0322
     47 H           7.7284    2.3970    0.0000 H       1  UNL1        0.0275
     48 H           6.9314    2.3970    0.0000 H       1  UNL1        0.0275
     49 H           8.5945    3.8970    0.0000 H       1  UNL1        0.0310
     50 H           7.7974    3.8970    0.0000 H       1  UNL1        0.0310
     51 H           7.0199    0.3851    0.0000 H       1  UNL1        0.0236
     52 H           7.8668    0.6120    0.0000 H       1  UNL1        0.0236
     53 H           7.6399    1.4590    0.0000 H       1  UNL1        0.0236
     54 H           7.7974    0.9471    0.0000 H       1  UNL1        0.0308
     55 H           8.5945    0.9471    0.0000 H       1  UNL1        0.0308
     56 H           9.5989    1.6120    0.0000 H       1  UNL1        0.0572
     57 H          10.2380    2.8851    0.0000 H       1  UNL1        0.0274
     58 H          10.4649    3.7320    0.0000 H       1  UNL1        0.0274
     59 H           9.6180    3.9590    0.0000 H       1  UNL1        0.0274
     60 H           2.8789    0.9756    0.0000 H       1  UNL1        0.1084
     61 H           7.0037   -1.4059    0.0000 H       1  UNL1        0.2922
     62 H           2.8532   -2.3560    0.0000 H       1  UNL1        0.2922
     63 H           3.5887   -2.7034    0.0000 H       1  UNL1        0.0348
     64 H           3.1928   -3.3952    0.0000 H       1  UNL1        0.0348
     65 H           3.8092   -4.9052    0.0000 H       1  UNL1        0.0300
     66 H           2.6307   -4.2528    0.0000 H       1  UNL1        0.0232
     67 H           2.4070   -5.1006    0.0000 H       1  UNL1        0.0232
     68 H           3.2548   -5.3242    0.0000 H       1  UNL1        0.0232
     69 H           4.3668   -5.3199    0.0000 H       1  UNL1        0.0232
     70 H           5.2129   -5.0897    0.0000 H       1  UNL1        0.0232
     71 H           4.9827   -4.2437    0.0000 H       1  UNL1        0.0232
@<TRIPOS>BOND
     1     1     9    1
     2     1    19    1
     3     2    23    1
     4     2    61    1
     5     3    27    1
     6     3    62    1
     7     4    28    2
     8     5    29    2
     9     6     7    1
    10     6     8    1
    11     6     9    1
    12     6    34    1
    13     7     8    1
    14     7    12    1
    15     7    13    1
    16     8    10    1
    17     8    35    1
    18     9    11    1
    19     9    36    1
    20    10    16    1
    21    10    37    1
    22    10    38    1
    23    11    14    1
    24    11    15    1
    25    11    17    1
    26    12    39    1
    27    12    40    1
    28    12    41    1
    29    13    42    1
    30    13    43    1
    31    13    44    1
    32    14    18    1
    33    14    45    1
    34    14    46    1
    35    15    20    1
    36    15    47    1
    37    15    48    1
    38    16    21    1
    39    16    49    1
    40    16    50    1
    41    17    51    1
    42    17    52    1
    43    17    53    1
    44    18    19   ar
    45    18    23   ar
    46    19    24   ar
    47    20    22    1
    48    20    54    1
    49    20    55    1
    50    21    22    2
    51    21    25    1
    52    22    56    1
    53    23    26   ar
    54    24    27   ar
    55    24    28    1
    56    25    57    1
    57    25    58    1
    58    25    59    1
    59    26    27   ar
    60    26    29    1
    61    28    60    1
    62    29    30    1
    63    30    31    1
    64    30    63    1
    65    30    64    1
    66    31    32    1
    67    31    33    1
    68    31    65    1
    69    32    66    1
    70    32    67    1
    71    32    68    1
    72    33    69    1
    73    33    70    1
    74    33    71    1
