@<TRIPOS>MOLECULE
IMPHY005137
 46 48 0 0 0
SMALL
GASTEIGER

@<TRIPOS>ATOM
      1 O           5.1482    2.4053    0.0000 O.3     1  UNL1       -0.4573
      2 O           5.7812   -0.8032    0.0000 O.3     1  UNL1       -0.4563
      3 O           4.6840   -2.2906    0.0000 O.2     1  UNL1       -0.2920
      4 O           6.8881    2.7635    0.0000 O.2     1  UNL1       -0.2453
      5 O           7.4789   -0.4600    0.0000 O.2     1  UNL1       -0.2453
      6 C           4.0984   -0.6135    0.0000 C.3     1  UNL1        0.0741
      7 C           3.1974   -0.1797    0.0000 C.3     1  UNL1       -0.0040
      8 C           4.9994   -0.1797    0.0000 C.3     1  UNL1        0.1266
      9 C           5.2219    0.7953    0.0000 C.3     1  UNL1        0.0653
     10 C           2.9749    0.7953    0.0000 C.3     1  UNL1       -0.0332
     11 C           4.5984    1.5771    0.0000 C.3     1  UNL1        0.1140
     12 C           3.5984    1.5771    0.0000 C.3     1  UNL1       -0.0118
     13 C           3.9624   -1.5983    0.0000 C.2     1  UNL1        0.1657
     14 C           4.9994   -1.0474    0.0000 C.3     1  UNL1       -0.0485
     15 C           2.5124   -0.9000    0.0000 C.2     1  UNL1       -0.0763
     16 C           6.1517    1.1470    0.0000 C.2     1  UNL1        0.0396
     17 C           2.0000    1.0178    0.0000 C.3     1  UNL1       -0.0617
     18 C           2.9842   -1.7749    0.0000 C.2     1  UNL1       -0.0221
     19 C           6.1062    2.1400    0.0000 C.2     1  UNL1        0.3354
     20 C           7.1449    1.2631    0.0000 C.2     1  UNL1       -0.0882
     21 C           6.7292   -1.1216    0.0000 C.2     1  UNL1        0.3346
     22 C           6.9273   -2.1018    0.0000 C.2     1  UNL1        0.0265
     23 C           7.8752   -2.4203    0.0000 C.3     1  UNL1       -0.0335
     24 C           6.1775   -2.7635    0.0000 C.2     1  UNL1       -0.0890
     25 H           2.3778    0.0454    0.0000 H       1  UNL1        0.0356
     26 H           5.5846    0.0251    0.0000 H       1  UNL1        0.0751
     27 H           5.8627    0.2368    0.0000 H       1  UNL1        0.0423
     28 H           2.7702    1.3805    0.0000 H       1  UNL1        0.0305
     29 H           4.1966    2.3261    0.0000 H       1  UNL1        0.0741
     30 H           3.7364    2.1816    0.0000 H       1  UNL1        0.0304
     31 H           3.0398    1.8461    0.0000 H       1  UNL1        0.0304
     32 H           4.7304   -1.6060    0.0000 H       1  UNL1        0.0241
     33 H           5.5580   -1.3164    0.0000 H       1  UNL1        0.0241
     34 H           5.2684   -0.4888    0.0000 H       1  UNL1        0.0241
     35 H           1.8978   -0.8178    0.0000 H       1  UNL1        0.0576
     36 H           2.1380    1.6222    0.0000 H       1  UNL1        0.0233
     37 H           1.3955    1.1558    0.0000 H       1  UNL1        0.0233
     38 H           1.8620    0.4133    0.0000 H       1  UNL1        0.0233
     39 H           2.7152   -2.3335    0.0000 H       1  UNL1        0.0649
     40 H           7.5152    0.7658    0.0000 H       1  UNL1        0.0540
     41 H           7.3904    1.8324    0.0000 H       1  UNL1        0.0540
     42 H           7.6778   -3.0080    0.0000 H       1  UNL1        0.0280
     43 H           8.4629   -2.6178    0.0000 H       1  UNL1        0.0280
     44 H           8.0727   -1.8326    0.0000 H       1  UNL1        0.0280
     45 H           5.5898   -2.5660    0.0000 H       1  UNL1        0.0540
     46 H           6.3004   -3.3712    0.0000 H       1  UNL1        0.0540
@<TRIPOS>BOND
     1     1    11    1
     2     1    19    1
     3     8     2    1
     4     2    21    1
     5     3    13    2
     6     4    19    2
     7     5    21    2
     8     6     7    1
     9     6     8    1
    10     6    13    1
    11     6    14    1
    12     7    10    1
    13     7    15    1
    14     7    25    1
    15     8     9    1
    16     8    26    1
    17     9    11    1
    18     9    16    1
    19     9    27    1
    20    10    12    1
    21    10    17    1
    22    10    28    1
    23    11    12    1
    24    11    29    1
    25    12    30    1
    26    12    31    1
    27    13    18    1
    28    14    32    1
    29    14    33    1
    30    14    34    1
    31    15    18    2
    32    15    35    1
    33    16    19    1
    34    16    20    2
    35    17    36    1
    36    17    37    1
    37    17    38    1
    38    18    39    1
    39    20    40    1
    40    20    41    1
    41    21    22    1
    42    22    23    1
    43    22    24    2
    44    23    42    1
    45    23    43    1
    46    23    44    1
    47    24    45    1
    48    24    46    1
