@<TRIPOS>MOLECULE
IMPHY013721
 103 109 0 0 0
SMALL
GASTEIGER

@<TRIPOS>ATOM
      1 O          11.2303    1.6674    0.0000 O.3     1  UNL1       -0.3877
      2 O           7.7580   -0.3741    0.0000 O.3     1  UNL1       -0.3944
      3 O           9.4651   -3.5361    0.0000 O.3     1  UNL1       -0.3454
      4 O           7.6262    5.1811    0.0000 O.3     1  UNL1       -0.4571
      5 O           7.7331   -3.5361    0.0000 O.3     1  UNL1       -0.3431
      6 O           8.2613    6.8461    0.0000 O.2     1  UNL1       -0.2456
      7 O           9.4651   -5.5361    0.0000 O.3     1  UNL1       -0.3841
      8 O           7.7331   -6.5361    0.0000 O.3     1  UNL1       -0.3864
      9 O           6.0010   -5.5361    0.0000 O.3     1  UNL1       -0.3402
     10 O           5.1350   -4.0361    0.0000 O.3     1  UNL1       -0.3405
     11 O           4.2690   -6.5361    0.0000 O.3     1  UNL1       -0.3841
     12 O           2.5369   -5.5361    0.0000 O.3     1  UNL1       -0.3864
     13 O           2.5369   -3.5361    0.0000 O.3     1  UNL1       -0.3865
     14 O           5.1350   -2.0361    0.0000 O.3     1  UNL1       -0.3924
     15 C          10.3623    2.1641    0.0000 C.3     1  UNL1        0.0751
     16 C          10.3662    1.1641    0.0000 C.3     1  UNL1       -0.0082
     17 C           9.5021    0.6608    0.0000 C.3     1  UNL1       -0.0276
     18 C           9.4944    2.6608    0.0000 C.3     1  UNL1        0.0036
     19 C           9.4901   -0.3808    0.0000 C.3     1  UNL1        0.0000
     20 C          10.3901   -0.9051    0.0000 C.3     1  UNL1       -0.0307
     21 C           8.6342    1.1574    0.0000 C.3     1  UNL1       -0.0487
     22 C           8.6303    2.1574    0.0000 C.3     1  UNL1       -0.0442
     23 C           9.6999    3.6334    0.0000 C.3     1  UNL1       -0.0081
     24 C          11.2781    0.6608    0.0000 C.3     1  UNL1       -0.0470
     25 C          11.0968    2.8340    0.0000 C.3     1  UNL1       -0.0226
     26 C          11.2902   -0.3808    0.0000 C.3     1  UNL1       -0.0492
     27 C          10.6882    3.7402    0.0000 C.3     1  UNL1       -0.0432
     28 C           8.5402   -0.9051    0.0000 C.3     1  UNL1       -0.0424
     29 C          10.4027   -1.9900    0.0000 C.3     1  UNL1       -0.0231
     30 C           8.6264    3.1574    0.0000 C.3     1  UNL1       -0.0564
     31 C           8.6260    0.1225    0.0000 C.3     1  UNL1        0.0503
     32 C           8.5276   -1.9900    0.0000 C.3     1  UNL1       -0.0259
     33 C           9.4651   -2.5361    0.0000 C.3     1  UNL1        0.0621
     34 C           9.0292    4.3751    0.0000 C.2     1  UNL1       -0.0222
     35 C           8.0348    4.2684    0.0000 C.3     1  UNL1        0.1147
     36 C           9.2350    5.3537    0.0000 C.2     1  UNL1        0.0252
     37 C           8.5991   -4.0361    0.0000 C.3     1  UNL1        0.1881
     38 C           8.3679    5.8518    0.0000 C.2     1  UNL1        0.3323
     39 C           8.5991   -5.0361    0.0000 C.3     1  UNL1        0.1341
     40 C           7.7331   -5.5361    0.0000 C.3     1  UNL1        0.1143
     41 C           6.8671   -4.0361    0.0000 C.3     1  UNL1        0.0877
     42 C           6.8671   -5.0361    0.0000 C.3     1  UNL1        0.1160
     43 C           6.0010   -3.5361    0.0000 C.3     1  UNL1       -0.0361
     44 C           5.1350   -5.0361    0.0000 C.3     1  UNL1        0.1884
     45 C           4.2690   -5.5361    0.0000 C.3     1  UNL1        0.1341
     46 C           3.4030   -5.0361    0.0000 C.3     1  UNL1        0.1141
     47 C           4.2690   -3.5361    0.0000 C.3     1  UNL1        0.1130
     48 C           3.4030   -4.0361    0.0000 C.3     1  UNL1        0.1119
     49 C           4.2690   -2.5361    0.0000 C.3     1  UNL1        0.0730
     50 H          11.0974    1.5976    0.0000 H       1  UNL1        0.0331
     51 H          10.0378    0.3487    0.0000 H       1  UNL1        0.0310
     52 H          11.1295   -1.3244    0.0000 H       1  UNL1        0.0308
     53 H           8.0232    1.2627    0.0000 H       1  UNL1        0.0268
     54 H           8.4244    0.5740    0.0000 H       1  UNL1        0.0268
     55 H           8.4160    2.7392    0.0000 H       1  UNL1        0.0272
     56 H           8.0201    2.0474    0.0000 H       1  UNL1        0.0272
     57 H           9.9206    4.2128    0.0000 H       1  UNL1        0.0353
     58 H          11.8902    0.5617    0.0000 H       1  UNL1        0.0269
     59 H          11.4804    1.2468    0.0000 H       1  UNL1        0.0269
     60 H          11.4642    2.3346    0.0000 H       1  UNL1        0.0293
     61 H          11.6321    3.1468    0.0000 H       1  UNL1        0.0293
     62 H          11.5060   -0.9620    0.0000 H       1  UNL1        0.0268
     63 H          11.8998   -0.2677    0.0000 H       1  UNL1        0.0268
     64 H          11.2770    3.9343    0.0000 H       1  UNL1        0.0272
     65 H          10.5571    4.3462    0.0000 H       1  UNL1        0.0272
     66 H           8.3379   -0.3190    0.0000 H       1  UNL1        0.0272
     67 H           7.9281   -1.0041    0.0000 H       1  UNL1        0.0272
     68 H          10.6185   -2.5712    0.0000 H       1  UNL1        0.0293
     69 H          11.0123   -1.8769    0.0000 H       1  UNL1        0.0293
     70 H           8.9344    3.6955    0.0000 H       1  UNL1        0.0236
     71 H           8.0883    3.4653    0.0000 H       1  UNL1        0.0236
     72 H           8.3185    2.6193    0.0000 H       1  UNL1        0.0236
     73 H           9.0263    0.5959    0.0000 H       1  UNL1        0.0563
     74 H           8.2293    0.5990    0.0000 H       1  UNL1        0.0563
     75 H           7.9180   -1.8769    0.0000 H       1  UNL1        0.0290
     76 H           8.3118   -2.5712    0.0000 H       1  UNL1        0.0290
     77 H          10.0027   -2.8451    0.0000 H       1  UNL1        0.0597
     78 H          11.7660    1.9795    0.0000 H       1  UNL1        0.2102
     79 H           7.4456    4.0756    0.0000 H       1  UNL1        0.0746
     80 H           8.1650    3.6623    0.0000 H       1  UNL1        0.0746
     81 H           7.2223   -0.0621    0.0000 H       1  UNL1        0.2094
     82 H           9.8008    5.6070    0.0000 H       1  UNL1        0.0689
     83 H           8.5991   -3.4161    0.0000 H       1  UNL1        0.0937
     84 H           8.5991   -5.6561    0.0000 H       1  UNL1        0.0671
     85 H           7.1962   -5.8461    0.0000 H       1  UNL1        0.0648
     86 H           6.8671   -3.4161    0.0000 H       1  UNL1        0.0621
     87 H           6.3301   -4.7261    0.0000 H       1  UNL1        0.0650
     88 H          10.0021   -5.2261    0.0000 H       1  UNL1        0.2101
     89 H           6.3110   -2.9992    0.0000 H       1  UNL1        0.0255
     90 H           5.4641   -3.2261    0.0000 H       1  UNL1        0.0255
     91 H           5.6910   -4.0731    0.0000 H       1  UNL1        0.0255
     92 H           8.2700   -6.8461    0.0000 H       1  UNL1        0.2100
     93 H           5.1350   -5.6561    0.0000 H       1  UNL1        0.0938
     94 H           3.7320   -5.8461    0.0000 H       1  UNL1        0.0671
     95 H           2.8660   -4.7261    0.0000 H       1  UNL1        0.0648
     96 H           4.8059   -3.2261    0.0000 H       1  UNL1        0.0647
     97 H           3.4030   -3.4161    0.0000 H       1  UNL1        0.0647
     98 H           3.7320   -6.8461    0.0000 H       1  UNL1        0.2101
     99 H           4.0569   -1.9535    0.0000 H       1  UNL1        0.0584
    100 H           3.6584   -2.6438    0.0000 H       1  UNL1        0.0584
    101 H           2.0000   -5.2261    0.0000 H       1  UNL1        0.2100
    102 H           2.5369   -2.9161    0.0000 H       1  UNL1        0.2100
    103 H           5.1350   -1.4161    0.0000 H       1  UNL1        0.2095
@<TRIPOS>BOND
     1    15     1    1
     2     1    78    1
     3     2    31    1
     4     2    81    1
     5    33     3    1
     6    37     3    1
     7     4    35    1
     8     4    38    1
     9     5    37    1
    10     5    41    1
    11     6    38    2
    12    39     7    1
    13     7    88    1
    14    40     8    1
    15     8    92    1
    16    42     9    1
    17    44     9    1
    18    10    44    1
    19    10    47    1
    20    45    11    1
    21    11    98    1
    22    46    12    1
    23    12   101    1
    24    48    13    1
    25    13   102    1
    26    14    49    1
    27    14   103    1
    28    15    16    1
    29    15    18    1
    30    15    25    1
    31    16    17    1
    32    16    24    1
    33    16    50    1
    34    17    19    1
    35    17    21    1
    36    17    51    1
    37    18    22    1
    38    18    23    1
    39    18    30    1
    40    19    20    1
    41    19    28    1
    42    19    31    1
    43    20    26    1
    44    20    29    1
    45    20    52    1
    46    21    22    1
    47    21    53    1
    48    21    54    1
    49    22    55    1
    50    22    56    1
    51    23    27    1
    52    23    34    1
    53    23    57    1
    54    24    26    1
    55    24    58    1
    56    24    59    1
    57    25    27    1
    58    25    60    1
    59    25    61    1
    60    26    62    1
    61    26    63    1
    62    27    64    1
    63    27    65    1
    64    28    32    1
    65    28    66    1
    66    28    67    1
    67    29    33    1
    68    29    68    1
    69    29    69    1
    70    30    70    1
    71    30    71    1
    72    30    72    1
    73    31    73    1
    74    31    74    1
    75    32    33    1
    76    32    75    1
    77    32    76    1
    78    33    77    1
    79    34    35    1
    80    34    36    2
    81    35    79    1
    82    35    80    1
    83    36    38    1
    84    36    82    1
    85    37    39    1
    86    37    83    1
    87    39    40    1
    88    39    84    1
    89    40    42    1
    90    40    85    1
    91    41    42    1
    92    41    43    1
    93    41    86    1
    94    42    87    1
    95    43    89    1
    96    43    90    1
    97    43    91    1
    98    44    45    1
    99    44    93    1
   100    45    46    1
   101    45    94    1
   102    46    48    1
   103    46    95    1
   104    47    48    1
   105    47    49    1
   106    47    96    1
   107    48    97    1
   108    49    99    1
   109    49   100    1
