@<TRIPOS>MOLECULE
IMPHY010808
 89 95 0 0 0
SMALL
GASTEIGER

@<TRIPOS>ATOM
      1 O           7.3700   -2.2681    0.0000 O.3     1  UNL1       -0.4478
      2 O           6.8654   -1.0506    0.0000 O.3     1  UNL1       -0.4885
      3 O           5.1584   -0.0651    0.0000 O.3     1  UNL1       -0.4913
      4 O           9.9145   -2.5804    0.0000 O.3     1  UNL1       -0.4913
      5 O           8.0241   -2.9666    0.0000 O.3     1  UNL1       -0.5009
      6 O           3.0573    1.5435    0.0000 O.3     1  UNL1       -0.4523
      7 O           3.3771    3.4948    0.0000 O.3     1  UNL1       -0.4914
      8 N           7.6722    1.2962    0.0000 N.3     1  UNL1       -0.2977
      9 N           3.4765   -3.9783    0.0000 N.3     1  UNL1       -0.2978
     10 C           7.3540    0.3788    0.0000 C.3     1  UNL1        0.0432
     11 C           3.4765   -3.0072    0.0000 C.3     1  UNL1        0.0398
     12 C           7.9894   -0.3556    0.0000 C.ar    1  UNL1        0.0193
     13 C           4.3174   -2.5217    0.0000 C.ar    1  UNL1       -0.0196
     14 C           5.1584   -3.0072    0.0000 C.ar    1  UNL1        0.0047
     15 C           5.1584   -3.9783    0.0000 C.3     1  UNL1       -0.0109
     16 C           4.3174   -4.4638    0.0000 C.3     1  UNL1        0.0033
     17 C           8.6259    1.4793    0.0000 C.3     1  UNL1        0.0032
     18 C           8.9430   -0.1724    0.0000 C.ar    1  UNL1       -0.0343
     19 C           9.2613    0.7450    0.0000 C.3     1  UNL1       -0.0143
     20 C           6.1184    0.4941    0.0000 C.3     1  UNL1       -0.0076
     21 C           2.6355   -2.5217    0.0000 C.3     1  UNL1       -0.0079
     22 C           7.6711   -1.2730    0.0000 C.ar    1  UNL1        0.1784
     23 C           5.9889   -2.5487    0.0000 C.ar    1  UNL1        0.1772
     24 C           4.3174   -1.5506    0.0000 C.ar    1  UNL1       -0.0111
     25 C           7.0179    2.0524    0.0000 C.3     1  UNL1       -0.0122
     26 C           9.5784   -0.9068    0.0000 C.ar    1  UNL1       -0.0125
     27 C           2.6104   -4.4783    0.0000 C.3     1  UNL1       -0.0122
     28 C           5.6167    1.5869    0.0000 C.ar    1  UNL1       -0.0419
     29 C           5.9994   -1.5506    0.0000 C.ar    1  UNL1        0.2044
     30 C           8.3066   -2.0074    0.0000 C.ar    1  UNL1        0.2020
     31 C           2.7936   -1.3578    0.0000 C.ar    1  UNL1       -0.0453
     32 C           5.1584   -1.0651    0.0000 C.ar    1  UNL1        0.1655
     33 C           9.2602   -1.8242    0.0000 C.ar    1  UNL1        0.1653
     34 C           4.7018    1.2616    0.0000 C.ar    1  UNL1       -0.0124
     35 C           5.7925    2.5419    0.0000 C.ar    1  UNL1       -0.0548
     36 C           2.0000   -0.7981    0.0000 C.ar    1  UNL1       -0.0550
     37 C           3.6750   -0.9504    0.0000 C.ar    1  UNL1       -0.0550
     38 C           3.9625    1.8913    0.0000 C.ar    1  UNL1        0.1701
     39 C           2.9694    0.5764    0.0000 C.ar    1  UNL1        0.1286
     40 C           2.0879    0.1690    0.0000 C.ar    1  UNL1       -0.0191
     41 C           3.7630    0.0167    0.0000 C.ar    1  UNL1       -0.0191
     42 C           5.0532    3.1716    0.0000 C.ar    1  UNL1       -0.0160
     43 C           4.1383    2.8463    0.0000 C.ar    1  UNL1        0.1621
     44 C           6.8654   -0.0506    0.0000 C.3     1  UNL1        0.0791
     45 C           4.2924    0.4349    0.0000 C.3     1  UNL1        0.0790
     46 C          10.8966   -2.3919    0.0000 C.3     1  UNL1        0.0790
     47 C           3.5580    4.4783    0.0000 C.3     1  UNL1        0.0790
     48 H           6.8939    1.0935    0.0000 H       1  UNL1        0.0516
     49 H           2.7404   -3.4322    0.0000 H       1  UNL1        0.0515
     50 H           5.3705   -4.5609    0.0000 H       1  UNL1        0.0327
     51 H           5.7690   -3.8706    0.0000 H       1  UNL1        0.0327
     52 H           3.9189   -4.9388    0.0000 H       1  UNL1        0.0430
     53 H           4.7160   -4.9388    0.0000 H       1  UNL1        0.0430
     54 H           9.1580    1.7974    0.0000 H       1  UNL1        0.0430
     55 H           8.4050    2.0586    0.0000 H       1  UNL1        0.0430
     56 H           9.8029    0.4432    0.0000 H       1  UNL1        0.0326
     57 H           9.6526    1.2259    0.0000 H       1  UNL1        0.0326
     58 H           5.5186    0.3371    0.0000 H       1  UNL1        0.0332
     59 H           6.1688   -0.1239    0.0000 H       1  UNL1        0.0332
     60 H           2.0371   -2.3596    0.0000 H       1  UNL1        0.0332
     61 H           2.3974   -3.0942    0.0000 H       1  UNL1        0.0332
     62 H           3.7805   -1.2406    0.0000 H       1  UNL1        0.0659
     63 H           7.4867    2.4581    0.0000 H       1  UNL1        0.0391
     64 H           6.6122    2.5213    0.0000 H       1  UNL1        0.0391
     65 H           6.5490    1.6467    0.0000 H       1  UNL1        0.0391
     66 H          10.1873   -0.7899    0.0000 H       1  UNL1        0.0658
     67 H           2.3004   -3.9414    0.0000 H       1  UNL1        0.0391
     68 H           2.0735   -4.7883    0.0000 H       1  UNL1        0.0391
     69 H           2.9204   -5.0152    0.0000 H       1  UNL1        0.0391
     70 H           4.5895    0.6518    0.0000 H       1  UNL1        0.0658
     71 H           6.3766    2.7496    0.0000 H       1  UNL1        0.0621
     72 H           1.4372   -1.0582    0.0000 H       1  UNL1        0.0621
     73 H           4.1817   -1.3077    0.0000 H       1  UNL1        0.0621
     74 H           1.5812    0.5263    0.0000 H       1  UNL1        0.0654
     75 H           4.3258    0.2768    0.0000 H       1  UNL1        0.0654
     76 H           8.4517   -3.4157    0.0000 H       1  UNL1        0.2924
     77 H           5.1655    3.7814    0.0000 H       1  UNL1        0.0655
     78 H           7.4854   -0.0506    0.0000 H       1  UNL1        0.0660
     79 H           6.8654    0.5694    0.0000 H       1  UNL1        0.0660
     80 H           6.2454   -0.0506    0.0000 H       1  UNL1        0.0660
     81 H           4.6024    0.9719    0.0000 H       1  UNL1        0.0660
     82 H           3.7554    0.7449    0.0000 H       1  UNL1        0.0660
     83 H           3.9824   -0.1020    0.0000 H       1  UNL1        0.0660
     84 H          11.0135   -3.0007    0.0000 H       1  UNL1        0.0660
     85 H          11.5055   -2.2750    0.0000 H       1  UNL1        0.0660
     86 H          10.7797   -1.7830    0.0000 H       1  UNL1        0.0660
     87 H           4.1678    4.3661    0.0000 H       1  UNL1        0.0660
     88 H           3.6703    5.0880    0.0000 H       1  UNL1        0.0660
     89 H           2.9483    4.5905    0.0000 H       1  UNL1        0.0660
@<TRIPOS>BOND
     1     1    22    1
     2     1    23    1
     3     2    29    1
     4     2    44    1
     5     3    32    1
     6     3    45    1
     7     4    33    1
     8     4    46    1
     9     5    30    1
    10     5    76    1
    11     6    38    1
    12     6    39    1
    13     7    43    1
    14     7    47    1
    15     8    10    1
    16     8    17    1
    17     8    25    1
    18     9    11    1
    19     9    16    1
    20     9    27    1
    21    10    12    1
    22    10    20    1
    23    10    48    1
    24    11    13    1
    25    11    21    1
    26    11    49    1
    27    12    18   ar
    28    12    22   ar
    29    13    14   ar
    30    13    24   ar
    31    14    15    1
    32    14    23   ar
    33    15    16    1
    34    15    50    1
    35    15    51    1
    36    16    52    1
    37    16    53    1
    38    17    19    1
    39    17    54    1
    40    17    55    1
    41    18    19    1
    42    18    26   ar
    43    19    56    1
    44    19    57    1
    45    20    28    1
    46    20    58    1
    47    20    59    1
    48    21    31    1
    49    21    60    1
    50    21    61    1
    51    22    30   ar
    52    23    29   ar
    53    24    32   ar
    54    24    62    1
    55    25    63    1
    56    25    64    1
    57    25    65    1
    58    26    33   ar
    59    26    66    1
    60    27    67    1
    61    27    68    1
    62    27    69    1
    63    28    34   ar
    64    28    35   ar
    65    29    32   ar
    66    30    33   ar
    67    31    36   ar
    68    31    37   ar
    69    34    38   ar
    70    34    70    1
    71    35    42   ar
    72    35    71    1
    73    36    40   ar
    74    36    72    1
    75    37    41   ar
    76    37    73    1
    77    38    43   ar
    78    39    40   ar
    79    39    41   ar
    80    40    74    1
    81    41    75    1
    82    42    43   ar
    83    42    77    1
    84    44    78    1
    85    44    79    1
    86    44    80    1
    87    45    81    1
    88    45    82    1
    89    45    83    1
    90    46    84    1
    91    46    85    1
    92    46    86    1
    93    47    87    1
    94    47    88    1
    95    47    89    1
