@<TRIPOS>MOLECULE
IMPHY004829
 35 36 0 0 0
SMALL
GASTEIGER

@<TRIPOS>ATOM
      1 O           4.5981   -2.5000    0.0000 O.2     1  UNL1       -0.2756
      2 N           2.8660    0.5000    0.0000 N.3     1  UNL1       -0.3095
      3 N           5.4641   -1.0000    0.0000 N.am    1  UNL1       -0.2782
      4 C           3.7320    1.0000    0.0000 C.3     1  UNL1        0.0303
      5 C           3.7320    2.0000    0.0000 C.3     1  UNL1       -0.0336
      6 C           4.5981    0.5000    0.0000 C.2     1  UNL1       -0.0387
      7 C           2.8660    2.5000    0.0000 C.3     1  UNL1       -0.0502
      8 C           2.0000    2.0000    0.0000 C.3     1  UNL1       -0.0404
      9 C           5.4641    1.0000    0.0000 C.3     1  UNL1       -0.0274
     10 C           2.0000    1.0000    0.0000 C.3     1  UNL1       -0.0036
     11 C           6.3301    0.5000    0.0000 C.3     1  UNL1       -0.0330
     12 C           6.3301   -0.5000    0.0000 C.3     1  UNL1        0.0195
     13 C           4.5981   -0.5000    0.0000 C.2     1  UNL1       -0.0001
     14 C           5.4641   -2.0000    0.0000 C.2     1  UNL1        0.2162
     15 C           6.3301   -2.5000    0.0000 C.3     1  UNL1        0.0127
     16 H           3.7320    0.3800    0.0000 H       1  UNL1        0.0507
     17 H           4.3426    1.8923    0.0000 H       1  UNL1        0.0283
     18 H           3.9441    2.5826    0.0000 H       1  UNL1        0.0283
     19 H           3.2646    2.9750    0.0000 H       1  UNL1        0.0266
     20 H           2.4675    2.9750    0.0000 H       1  UNL1        0.0266
     21 H           1.7880    2.5826    0.0000 H       1  UNL1        0.0277
     22 H           1.3894    1.8923    0.0000 H       1  UNL1        0.0277
     23 H           5.8626    1.4750    0.0000 H       1  UNL1        0.0311
     24 H           5.0656    1.4750    0.0000 H       1  UNL1        0.0311
     25 H           2.8660   -0.1200    0.0000 H       1  UNL1        0.1225
     26 H           1.3894    1.1077    0.0000 H       1  UNL1        0.0424
     27 H           1.7880    0.4174    0.0000 H       1  UNL1        0.0424
     28 H           6.9407    0.3923    0.0000 H       1  UNL1        0.0284
     29 H           6.5422    1.0826    0.0000 H       1  UNL1        0.0284
     30 H           6.5422   -1.0826    0.0000 H       1  UNL1        0.0468
     31 H           6.9407   -0.3923    0.0000 H       1  UNL1        0.0468
     32 H           4.0611   -0.8100    0.0000 H       1  UNL1        0.0784
     33 H           6.0201   -3.0369    0.0000 H       1  UNL1        0.0323
     34 H           6.8671   -2.8100    0.0000 H       1  UNL1        0.0323
     35 H           6.6401   -1.9631    0.0000 H       1  UNL1        0.0323
@<TRIPOS>BOND
     1     1    14    2
     2     2     4    1
     3     2    10    1
     4     2    25    1
     5     3    12    1
     6     3    13    1
     7     3    14   am
     8     4     5    1
     9     4     6    1
    10     4    16    1
    11     5     7    1
    12     5    17    1
    13     5    18    1
    14     6     9    1
    15     6    13    2
    16     7     8    1
    17     7    19    1
    18     7    20    1
    19     8    10    1
    20     8    21    1
    21     8    22    1
    22     9    11    1
    23     9    23    1
    24     9    24    1
    25    10    26    1
    26    10    27    1
    27    11    12    1
    28    11    28    1
    29    11    29    1
    30    12    30    1
    31    12    31    1
    32    13    32    1
    33    14    15    1
    34    15    33    1
    35    15    34    1
    36    15    35    1
