@<TRIPOS>MOLECULE
IMPHY006883
 50 54 0 0 0
SMALL
GASTEIGER

@<TRIPOS>ATOM
      1 O           5.1157   -2.6873    0.0000 O.2     1  UNL1       -0.2970
      2 O           6.6555   -2.1870    0.0000 O.3     1  UNL1       -0.4646
      3 O           7.0156   -0.4928    0.0000 O.2     1  UNL1       -0.2453
      4 N           2.6254   -0.4450    0.0000 N.3     1  UNL1       -0.2972
      5 N           5.7049    0.5556    0.0000 N.pl3   1  UNL1       -0.3164
      6 C           3.5397   -0.6393    0.0000 C.3     1  UNL1        0.0379
      7 C           4.1652    0.0553    0.0000 C.3     1  UNL1        0.0534
      8 C           3.8286   -1.5283    0.0000 C.3     1  UNL1        0.0496
      9 C           3.7801    1.0909    0.0000 C.3     1  UNL1       -0.0237
     10 C           2.3366    0.4440    0.0000 C.3     1  UNL1        0.0004
     11 C           5.0795   -0.1390    0.0000 C.2     1  UNL1        0.0304
     12 C           3.2031   -2.2229    0.0000 C.3     1  UNL1       -0.0377
     13 C           4.7429   -1.7226    0.0000 C.3     1  UNL1       -0.0056
     14 C           4.5018    1.6389    0.0000 C.ar    1  UNL1       -0.0130
     15 C           2.0000   -1.1396    0.0000 C.3     1  UNL1       -0.0007
     16 C           2.2888   -2.0286    0.0000 C.3     1  UNL1       -0.0392
     17 C           5.3683   -1.0280    0.0000 C.2     1  UNL1        0.0554
     18 C           4.1376   -2.4794    0.0000 C.2     1  UNL1        0.1382
     19 C           5.4161    1.4446    0.0000 C.ar    1  UNL1        0.0353
     20 C           4.2129    2.5279    0.0000 C.ar    1  UNL1       -0.0559
     21 C           6.3465   -1.2359    0.0000 C.2     1  UNL1        0.3364
     22 C           3.4685   -3.2225    0.0000 C.3     1  UNL1       -0.0054
     23 C           6.0415    2.1392    0.0000 C.ar    1  UNL1       -0.0403
     24 C           4.8384    3.2225    0.0000 C.ar    1  UNL1       -0.0614
     25 C           5.7527    3.0282    0.0000 C.ar    1  UNL1       -0.0600
     26 C           7.6336   -2.3949    0.0000 C.3     1  UNL1        0.0820
     27 H           3.2771    0.1691    0.0000 H       1  UNL1        0.0485
     28 H           4.3564    1.3196    0.0000 H       1  UNL1        0.0290
     29 H           3.5389    1.6621    0.0000 H       1  UNL1        0.0290
     30 H           2.1034    1.0184    0.0000 H       1  UNL1        0.0427
     31 H           1.7542    0.2314    0.0000 H       1  UNL1        0.0427
     32 H           2.9709   -2.7978    0.0000 H       1  UNL1        0.0276
     33 H           3.7289   -2.5515    0.0000 H       1  UNL1        0.0276
     34 H           4.5106   -2.2975    0.0000 H       1  UNL1        0.0326
     35 H           5.2687   -2.0512    0.0000 H       1  UNL1        0.0326
     36 H           1.6183   -0.6510    0.0000 H       1  UNL1        0.0427
     37 H           1.4526   -1.4307    0.0000 H       1  UNL1        0.0427
     38 H           1.6749   -2.1149    0.0000 H       1  UNL1        0.0278
     39 H           2.2672   -2.6482    0.0000 H       1  UNL1        0.0278
     40 H           6.3114    0.4267    0.0000 H       1  UNL1        0.1519
     41 H           3.6065    2.6568    0.0000 H       1  UNL1        0.0621
     42 H           3.0077   -2.8076    0.0000 H       1  UNL1        0.0306
     43 H           3.0536   -3.6832    0.0000 H       1  UNL1        0.0306
     44 H           3.9292   -3.6374    0.0000 H       1  UNL1        0.0306
     45 H           6.6480    2.0103    0.0000 H       1  UNL1        0.0636
     46 H           4.6468    3.8122    0.0000 H       1  UNL1        0.0618
     47 H           6.1676    3.4889    0.0000 H       1  UNL1        0.0618
     48 H           7.5047   -3.0013    0.0000 H       1  UNL1        0.0661
     49 H           8.2401   -2.5238    0.0000 H       1  UNL1        0.0661
     50 H           7.7625   -1.7884    0.0000 H       1  UNL1        0.0661
@<TRIPOS>BOND
     1     1    18    2
     2     2    21    1
     3     2    26    1
     4     3    21    2
     5     4     6    1
     6     4    10    1
     7     4    15    1
     8     5    11    1
     9     5    19    1
    10     5    40    1
    11     6     7    1
    12     6     8    1
    13     6    27    1
    14     7     9    1
    15     7    11    1
    16     7    14    1
    17     8    12    1
    18     8    13    1
    19     8    18    1
    20     9    10    1
    21     9    28    1
    22     9    29    1
    23    10    30    1
    24    10    31    1
    25    11    17    2
    26    12    16    1
    27    12    32    1
    28    12    33    1
    29    13    17    1
    30    13    34    1
    31    13    35    1
    32    14    19   ar
    33    14    20   ar
    34    15    16    1
    35    15    36    1
    36    15    37    1
    37    16    38    1
    38    16    39    1
    39    17    21    1
    40    18    22    1
    41    19    23   ar
    42    20    24   ar
    43    20    41    1
    44    22    42    1
    45    22    43    1
    46    22    44    1
    47    23    25   ar
    48    23    45    1
    49    24    25   ar
    50    24    46    1
    51    25    47    1
    52    26    48    1
    53    26    49    1
    54    26    50    1
