@<TRIPOS>MOLECULE
IMPHY012038
 47 48 0 0 0
SMALL
GASTEIGER

@<TRIPOS>ATOM
      1 O           4.5981   -0.4560    0.0000 O.2     1  UNL1       -0.2462
      2 O           6.3301    2.5440    0.0000 O.2     1  UNL1       -0.2652
      3 O          10.0994    1.7612    0.0000 O.2     1  UNL1       -0.2958
      4 N           6.3301   -0.4560    0.0000 N.ar    1  UNL1       -0.2765
      5 N           5.4641    1.0440    0.0000 N.ar    1  UNL1       -0.2591
      6 N           8.1424    1.3487    0.0000 N.ar    1  UNL1       -0.3174
      7 N           8.1424   -0.2607    0.0000 N.ar    1  UNL1       -0.2177
      8 C           7.1962    1.0440    0.0000 C.ar    1  UNL1        0.1518
      9 C           7.1962    0.0440    0.0000 C.ar    1  UNL1        0.1681
     10 C           6.3301   -1.4560    0.0000 C.3     1  UNL1        0.0295
     11 C           4.5981    1.5440    0.0000 C.3     1  UNL1        0.0310
     12 C           5.4641    0.0440    0.0000 C.ar    1  UNL1        0.3336
     13 C           6.3301    1.5440    0.0000 C.ar    1  UNL1        0.2824
     14 C           5.4641   -1.9560    0.0000 C.3     1  UNL1       -0.0350
     15 C           3.7320    1.0440    0.0000 C.3     1  UNL1       -0.0350
     16 C           5.4641   -2.9560    0.0000 C.3     1  UNL1       -0.0543
     17 C           8.4530    2.2993    0.0000 C.3     1  UNL1        0.0828
     18 C           8.7260    0.5440    0.0000 C.ar    1  UNL1        0.0993
     19 C           2.8660    1.5440    0.0000 C.3     1  UNL1       -0.0543
     20 C           4.5981   -3.4560    0.0000 C.3     1  UNL1       -0.0652
     21 C           2.0000    1.0440    0.0000 C.3     1  UNL1       -0.0652
     22 C           9.4315    2.5055    0.0000 C.2     1  UNL1        0.1498
     23 C           9.7422    3.4560    0.0000 C.3     1  UNL1       -0.0043
     24 H           6.5422   -2.0386    0.0000 H       1  UNL1        0.0494
     25 H           6.9407   -1.3483    0.0000 H       1  UNL1        0.0494
     26 H           4.9966    2.0189    0.0000 H       1  UNL1        0.0494
     27 H           4.1996    2.0189    0.0000 H       1  UNL1        0.0494
     28 H           5.2520   -1.3734    0.0000 H       1  UNL1        0.0282
     29 H           4.8535   -2.0637    0.0000 H       1  UNL1        0.0282
     30 H           3.3335    0.5691    0.0000 H       1  UNL1        0.0282
     31 H           4.1306    0.5691    0.0000 H       1  UNL1        0.0282
     32 H           5.6762   -3.5386    0.0000 H       1  UNL1        0.0263
     33 H           6.0747   -2.8483    0.0000 H       1  UNL1        0.0263
     34 H           8.4325    2.9189    0.0000 H       1  UNL1        0.0571
     35 H           7.8392    2.3866    0.0000 H       1  UNL1        0.0571
     36 H           9.3460    0.5440    0.0000 H       1  UNL1        0.1030
     37 H           3.2646    2.0189    0.0000 H       1  UNL1        0.0263
     38 H           2.4675    2.0189    0.0000 H       1  UNL1        0.0263
     39 H           4.2881   -2.9191    0.0000 H       1  UNL1        0.0230
     40 H           4.0611   -3.7660    0.0000 H       1  UNL1        0.0230
     41 H           4.9081   -3.9929    0.0000 H       1  UNL1        0.0230
     42 H           1.6900    1.5809    0.0000 H       1  UNL1        0.0230
     43 H           1.4631    0.7340    0.0000 H       1  UNL1        0.0230
     44 H           2.3100    0.5071    0.0000 H       1  UNL1        0.0230
     45 H          10.3315    3.2634    0.0000 H       1  UNL1        0.0306
     46 H           9.9348    4.0453    0.0000 H       1  UNL1        0.0306
     47 H           9.1529    3.6486    0.0000 H       1  UNL1        0.0306
@<TRIPOS>BOND
     1     1    12    2
     2     2    13    2
     3     3    22    2
     4     4     9   ar
     5     4    10    1
     6     4    12   ar
     7     5    11    1
     8     5    12   ar
     9     5    13   ar
    10     6     8   ar
    11     6    17    1
    12     6    18   ar
    13     7     9   ar
    14     7    18   ar
    15     8     9   ar
    16     8    13   ar
    17    10    14    1
    18    10    24    1
    19    10    25    1
    20    11    15    1
    21    11    26    1
    22    11    27    1
    23    14    16    1
    24    14    28    1
    25    14    29    1
    26    15    19    1
    27    15    30    1
    28    15    31    1
    29    16    20    1
    30    16    32    1
    31    16    33    1
    32    17    22    1
    33    17    34    1
    34    17    35    1
    35    18    36    1
    36    19    21    1
    37    19    37    1
    38    19    38    1
    39    20    39    1
    40    20    40    1
    41    20    41    1
    42    21    42    1
    43    21    43    1
    44    21    44    1
    45    22    23    1
    46    23    45    1
    47    23    46    1
    48    23    47    1
