@<TRIPOS>MOLECULE
IMPHY007616
 35 37 0 0 0
SMALL
GASTEIGER

@<TRIPOS>ATOM
      1 O           6.4783   -1.0720    0.0000 O.3     1  UNL1       -0.4226
      2 O           8.0619   -0.2673    0.0000 O.2     1  UNL1       -0.2449
      3 C           3.8000   -0.7673    0.0000 C.3     1  UNL1       -0.0035
      4 C           3.8000    0.2327    0.0000 C.3     1  UNL1       -0.0071
      5 C           2.9061   -1.3020    0.0000 C.3     1  UNL1       -0.0432
      6 C           4.6660    0.7327    0.0000 C.3     1  UNL1       -0.0164
      7 C           2.9061    0.7674    0.0000 C.2     1  UNL1       -0.0724
      8 C           2.0000   -0.7881    0.0000 C.3     1  UNL1       -0.0486
      9 C           4.6660   -1.2673    0.0000 C.2     1  UNL1       -0.0347
     10 C           2.0000    0.2535    0.0000 C.3     1  UNL1       -0.0317
     11 C           3.8000   -1.7673    0.0000 C.3     1  UNL1       -0.0554
     12 C           5.5321    0.2327    0.0000 C.2     1  UNL1        0.0050
     13 C           5.5321   -0.7673    0.0000 C.2     1  UNL1        0.1322
     14 C           6.4783    0.5374    0.0000 C.2     1  UNL1        0.0406
     15 C           2.9176    1.7673    0.0000 C.2     1  UNL1       -0.0991
     16 C           7.0619   -0.2673    0.0000 C.2     1  UNL1        0.3405
     17 C           6.7889    1.4880    0.0000 C.3     1  UNL1       -0.0325
     18 H           3.8066    1.0827    0.0000 H       1  UNL1        0.0357
     19 H           2.5124   -1.7810    0.0000 H       1  UNL1        0.0274
     20 H           3.3107   -1.7718    0.0000 H       1  UNL1        0.0274
     21 H           5.0646    1.2076    0.0000 H       1  UNL1        0.0320
     22 H           4.2675    1.2076    0.0000 H       1  UNL1        0.0320
     23 H           1.3891   -0.6820    0.0000 H       1  UNL1        0.0269
     24 H           1.7909   -1.3718    0.0000 H       1  UNL1        0.0269
     25 H           4.6660   -1.8873    0.0000 H       1  UNL1        0.0614
     26 H           1.7909    0.8372    0.0000 H       1  UNL1        0.0310
     27 H           1.3891    0.1474    0.0000 H       1  UNL1        0.0310
     28 H           3.1800   -1.7673    0.0000 H       1  UNL1        0.0238
     29 H           3.8000   -2.3873    0.0000 H       1  UNL1        0.0238
     30 H           4.4200   -1.7673    0.0000 H       1  UNL1        0.0238
     31 H           3.4581    2.0711    0.0000 H       1  UNL1        0.0534
     32 H           2.3843    2.0835    0.0000 H       1  UNL1        0.0534
     33 H           7.3783    1.2953    0.0000 H       1  UNL1        0.0280
     34 H           6.9816    2.0773    0.0000 H       1  UNL1        0.0280
     35 H           6.1996    1.6806    0.0000 H       1  UNL1        0.0280
@<TRIPOS>BOND
     1     1    13    1
     2     1    16    1
     3     2    16    2
     4     3     4    1
     5     3     5    1
     6     3     9    1
     7     3    11    1
     8     4     6    1
     9     4     7    1
    10     4    18    1
    11     5     8    1
    12     5    19    1
    13     5    20    1
    14     6    12    1
    15     6    21    1
    16     6    22    1
    17     7    10    1
    18     7    15    2
    19     8    10    1
    20     8    23    1
    21     8    24    1
    22     9    13    2
    23     9    25    1
    24    10    26    1
    25    10    27    1
    26    11    28    1
    27    11    29    1
    28    11    30    1
    29    12    13    1
    30    12    14    2
    31    14    16    1
    32    14    17    1
    33    15    31    1
    34    15    32    1
    35    17    33    1
    36    17    34    1
    37    17    35    1
