@<TRIPOS>MOLECULE
IMPHY001986
 67 71 0 0 0
SMALL
GASTEIGER

@<TRIPOS>ATOM
      1 O           6.3821   -0.0104    0.0000 O.2     1  UNL1       -0.4537
      2 O           8.2480    3.0660    0.0000 O.3     1  UNL1       -0.4811
      3 O           3.7840    1.4896    0.0000 O.2     1  UNL1       -0.2866
      4 O           4.6283    3.0211    0.0000 O.3     1  UNL1       -0.5052
      5 O           3.7578   -3.6613    0.0000 O.3     1  UNL1       -0.5031
      6 O           7.3403   -1.5559    0.0000 O.3     1  UNL1       -0.5059
      7 O           5.5692   -4.7071    0.0000 O.3     1  UNL1       -0.5032
      8 C           3.7320   -1.5588    0.0000 C.3     1  UNL1        0.0132
      9 C           3.7401   -0.5172    0.0000 C.3     1  UNL1       -0.0098
     10 C           4.6501   -0.0104    0.0000 C.ar    1  UNL1        0.0439
     11 C           4.6341   -2.0797    0.0000 C.ar    1  UNL1        0.0192
     12 C           5.5161   -0.5104    0.0000 C.ar    1  UNL1        0.1463
     13 C           5.5322   -1.5519    0.0000 C.ar    1  UNL1        0.0665
     14 C           5.5161    1.4896    0.0000 C.ar    1  UNL1        0.1066
     15 C           6.3821    0.9896    0.0000 C.ar    1  UNL1        0.1498
     16 C           4.6501    0.9896    0.0000 C.ar    1  UNL1        0.1998
     17 C           7.2921    1.4964    0.0000 C.ar    1  UNL1        0.0417
     18 C           2.8641   -2.0555    0.0000 C.2     1  UNL1       -0.0719
     19 C           7.3002    2.5380    0.0000 C.ar    1  UNL1        0.1393
     20 C           6.3981    3.0589    0.0000 C.ar    1  UNL1        0.0591
     21 C           8.2564    4.1510    0.0000 C.3     1  UNL1        0.1235
     22 C           4.6258   -3.1646    0.0000 C.ar    1  UNL1        0.1630
     23 C           5.5000    2.5311    0.0000 C.ar    1  UNL1        0.1418
     24 C           6.4841   -2.0725    0.0000 C.ar    1  UNL1        0.1315
     25 C           8.1523    0.9865    0.0000 C.3     1  UNL1       -0.0022
     26 C           6.3813    4.1437    0.0000 C.2     1  UNL1       -0.0478
     27 C           7.3168    4.6934    0.0000 C.2     1  UNL1       -0.0408
     28 C           5.5654   -3.7071    0.0000 C.ar    1  UNL1        0.1621
     29 C           6.5008   -3.1574    0.0000 C.ar    1  UNL1        0.0257
     30 C           2.0000   -1.5522    0.0000 C.3     1  UNL1       -0.0435
     31 C           8.7597    5.0150    0.0000 C.3     1  UNL1       -0.0215
     32 C           9.2564    4.1471    0.0000 C.3     1  UNL1       -0.0215
     33 C           2.8602   -3.0555    0.0000 C.2     1  UNL1       -0.0991
     34 C           9.0241    1.4764    0.0000 C.2     1  UNL1       -0.0807
     35 C           9.8842    0.9664    0.0000 C.2     1  UNL1       -0.0793
     36 C          10.7560    1.4564    0.0000 C.3     1  UNL1       -0.0440
     37 C           9.8727   -0.0335    0.0000 C.3     1  UNL1       -0.0440
     38 H           3.7304   -2.4088    0.0000 H       1  UNL1        0.0398
     39 H           3.5355    0.0680    0.0000 H       1  UNL1        0.0324
     40 H           3.1284   -0.6186    0.0000 H       1  UNL1        0.0324
     41 H           7.7483    0.5162    0.0000 H       1  UNL1        0.0358
     42 H           8.5453    0.5069    0.0000 H       1  UNL1        0.0358
     43 H           5.8409    4.4475    0.0000 H       1  UNL1        0.0624
     44 H           7.3144    5.3134    0.0000 H       1  UNL1        0.0611
     45 H           7.0413   -3.4612    0.0000 H       1  UNL1        0.0692
     46 H           2.3121   -1.0164    0.0000 H       1  UNL1        0.0274
     47 H           1.4643   -1.2401    0.0000 H       1  UNL1        0.0274
     48 H           1.6879   -2.0879    0.0000 H       1  UNL1        0.0274
     49 H           9.2955    4.7030    0.0000 H       1  UNL1        0.0271
     50 H           9.0718    5.5508    0.0000 H       1  UNL1        0.0271
     51 H           8.2240    5.3271    0.0000 H       1  UNL1        0.0271
     52 H           9.2540    3.5271    0.0000 H       1  UNL1        0.0271
     53 H           9.8764    4.1447    0.0000 H       1  UNL1        0.0271
     54 H           9.2588    4.7671    0.0000 H       1  UNL1        0.0271
     55 H           2.3221   -3.3634    0.0000 H       1  UNL1        0.0534
     56 H           3.3960   -3.3676    0.0000 H       1  UNL1        0.0534
     57 H           9.0312    2.0964    0.0000 H       1  UNL1        0.0575
     58 H           4.6211    3.6410    0.0000 H       1  UNL1        0.2922
     59 H           3.7554   -4.2813    0.0000 H       1  UNL1        0.2923
     60 H           7.8831   -1.8555    0.0000 H       1  UNL1        0.2922
     61 H           6.1074   -5.0150    0.0000 H       1  UNL1        0.2923
     62 H           9.2527   -0.0263    0.0000 H       1  UNL1        0.0274
     63 H           9.8655   -0.6535    0.0000 H       1  UNL1        0.0274
     64 H          10.4926   -0.0407    0.0000 H       1  UNL1        0.0274
     65 H          11.0598    0.9159    0.0000 H       1  UNL1        0.0274
     66 H          11.2965    1.7602    0.0000 H       1  UNL1        0.0274
     67 H          10.4522    1.9969    0.0000 H       1  UNL1        0.0274
@<TRIPOS>BOND
     1     1    12   ar
     2     1    15   ar
     3     2    19    1
     4     2    21    1
     5     3    16    2
     6     4    23    1
     7     4    58    1
     8     5    22    1
     9     5    59    1
    10     6    24    1
    11     6    60    1
    12     7    28    1
    13     7    61    1
    14     8     9    1
    15     8    11    1
    16     8    18    1
    17     8    38    1
    18     9    10    1
    19     9    39    1
    20     9    40    1
    21    10    12   ar
    22    10    16   ar
    23    11    13   ar
    24    11    22   ar
    25    12    13    1
    26    13    24   ar
    27    14    15   ar
    28    14    16   ar
    29    14    23   ar
    30    15    17   ar
    31    17    19   ar
    32    17    25    1
    33    18    30    1
    34    18    33    2
    35    19    20   ar
    36    20    23   ar
    37    20    26    1
    38    21    27    1
    39    21    31    1
    40    21    32    1
    41    22    28   ar
    42    24    29   ar
    43    25    34    1
    44    25    41    1
    45    25    42    1
    46    26    27    2
    47    26    43    1
    48    27    44    1
    49    28    29   ar
    50    29    45    1
    51    30    46    1
    52    30    47    1
    53    30    48    1
    54    31    49    1
    55    31    50    1
    56    31    51    1
    57    32    52    1
    58    32    53    1
    59    32    54    1
    60    33    55    1
    61    33    56    1
    62    34    35    2
    63    34    57    1
    64    35    36    1
    65    35    37    1
    66    36    65    1
    67    36    66    1
    68    36    67    1
    69    37    62    1
    70    37    63    1
    71    37    64    1
