@<TRIPOS>MOLECULE
IMPHY003376
 51 54 0 0 0
SMALL
GASTEIGER

@<TRIPOS>ATOM
      1 O           4.4455   -1.4442    0.0000 O.3     1  UNL1       -0.4562
      2 O           7.9896    2.6459    0.0000 O.3     1  UNL1       -0.3918
      3 O           8.8435   -1.9234    0.0000 O.2     1  UNL1       -0.2971
      4 O           5.3631   -2.9580    0.0000 O.2     1  UNL1       -0.2505
      5 O          10.6195    0.0635    0.0000 O.3     1  UNL1       -0.4677
      6 O           9.7361   -1.4264    0.0000 O.2     1  UNL1       -0.2505
      7 O           2.0000    0.4433    0.0000 O.2     1  UNL1       -0.4706
      8 C           6.2455   -0.4234    0.0000 C.3     1  UNL1       -0.0116
      9 C           7.1115    0.0766    0.0000 C.3     1  UNL1       -0.0221
     10 C           7.9775   -0.4234    0.0000 C.3     1  UNL1        0.0339
     11 C           6.2455   -1.4234    0.0000 C.3     1  UNL1        0.0688
     12 C           7.0954    1.1181    0.0000 C.3     1  UNL1       -0.0228
     13 C           5.3515    0.1113    0.0000 C.3     1  UNL1       -0.0049
     14 C           8.8875    0.0835    0.0000 C.3     1  UNL1        0.0685
     15 C           7.1115   -1.9234    0.0000 C.3     1  UNL1        0.0196
     16 C           7.9775   -1.4234    0.0000 C.2     1  UNL1        0.1383
     17 C           7.9935    1.6459    0.0000 C.3     1  UNL1        0.0563
     18 C           8.8956    1.1251    0.0000 C.3     1  UNL1       -0.0133
     19 C           6.2455    0.5766    0.0000 C.3     1  UNL1       -0.0584
     20 C           4.4455   -0.4025    0.0000 C.3     1  UNL1        0.1315
     21 C           5.3515   -1.9580    0.0000 C.2     1  UNL1        0.3117
     22 C           9.7477   -0.4265    0.0000 C.2     1  UNL1        0.3107
     23 C           3.5814    0.1008    0.0000 C.ar    1  UNL1        0.0304
     24 C           3.4807    1.0957    0.0000 C.ar    1  UNL1       -0.0172
     25 C           2.6663   -0.3024    0.0000 C.ar    1  UNL1        0.0983
     26 C           2.5033    1.3074    0.0000 C.ar    1  UNL1        0.0921
     27 C          11.4796   -0.4465    0.0000 C.3     1  UNL1        0.0817
     28 H           7.8443    0.5073    0.0000 H       1  UNL1        0.0314
     29 H           8.7103   -0.8540    0.0000 H       1  UNL1        0.0388
     30 H           6.2520   -2.2733    0.0000 H       1  UNL1        0.0423
     31 H           6.8774    1.6985    0.0000 H       1  UNL1        0.0293
     32 H           6.4863    1.0026    0.0000 H       1  UNL1        0.0293
     33 H           5.7561    0.5811    0.0000 H       1  UNL1        0.0310
     34 H           4.9579    0.5903    0.0000 H       1  UNL1        0.0310
     35 H           8.8792   -0.5365    0.0000 H       1  UNL1        0.0421
     36 H           6.7130   -2.3983    0.0000 H       1  UNL1        0.0350
     37 H           7.5100   -2.3983    0.0000 H       1  UNL1        0.0350
     38 H           7.4548    1.9528    0.0000 H       1  UNL1        0.0593
     39 H           9.5056    1.0143    0.0000 H       1  UNL1        0.0298
     40 H           9.1091    1.7071    0.0000 H       1  UNL1        0.0298
     41 H           6.8655    0.5766    0.0000 H       1  UNL1        0.0235
     42 H           6.2455    1.1966    0.0000 H       1  UNL1        0.0235
     43 H           5.6255    0.5766    0.0000 H       1  UNL1        0.0235
     44 H           3.9079   -0.7115    0.0000 H       1  UNL1        0.0786
     45 H           8.5254    2.9580    0.0000 H       1  UNL1        0.2098
     46 H           3.9430    1.5088    0.0000 H       1  UNL1        0.0653
     47 H           2.5350   -0.9084    0.0000 H       1  UNL1        0.1033
     48 H           2.2533    1.8748    0.0000 H       1  UNL1        0.1029
     49 H          11.1635   -0.9798    0.0000 H       1  UNL1        0.0661
     50 H          12.0130   -0.7627    0.0000 H       1  UNL1        0.0661
     51 H          11.7958    0.0868    0.0000 H       1  UNL1        0.0661
@<TRIPOS>BOND
     1     1    20    1
     2     1    21    1
     3    17     2    1
     4     2    45    1
     5     3    16    2
     6     4    21    2
     7     5    22    1
     8     5    27    1
     9     6    22    2
    10     7    25   ar
    11     7    26   ar
    12     8     9    1
    13     8    11    1
    14     8    13    1
    15     8    19    1
    16     9    10    1
    17     9    12    1
    18     9    28    1
    19    10    14    1
    20    10    16    1
    21    10    29    1
    22    11    15    1
    23    11    21    1
    24    11    30    1
    25    12    17    1
    26    12    31    1
    27    12    32    1
    28    13    20    1
    29    13    33    1
    30    13    34    1
    31    14    18    1
    32    14    22    1
    33    14    35    1
    34    15    16    1
    35    15    36    1
    36    15    37    1
    37    17    18    1
    38    17    38    1
    39    18    39    1
    40    18    40    1
    41    19    41    1
    42    19    42    1
    43    19    43    1
    44    20    23    1
    45    20    44    1
    46    23    24   ar
    47    23    25   ar
    48    24    26   ar
    49    24    46    1
    50    25    47    1
    51    26    48    1
    52    27    49    1
    53    27    50    1
    54    27    51    1
