@<TRIPOS>MOLECULE
IMPHY014106
 78 82 0 0 0
SMALL
GASTEIGER

@<TRIPOS>ATOM
      1 O           6.8671   -4.1246    0.0000 O.3     1  UNL1       -0.3366
      2 O           7.7331   -2.6246    0.0000 O.3     1  UNL1       -0.3431
      3 O           5.1350   -2.1246    0.0000 O.3     1  UNL1       -0.3221
      4 O           5.1350   -5.1246    0.0000 O.3     1  UNL1       -0.3863
      5 O           6.8671   -2.1246    0.0000 O.3     1  UNL1       -0.4606
      6 O           8.5991   -5.1246    0.0000 O.3     1  UNL1       -0.3841
      7 O          10.3312   -4.1246    0.0000 O.3     1  UNL1       -0.3864
      8 O          10.3312   -2.1246    0.0000 O.3     1  UNL1       -0.3866
      9 O           3.4030   -4.1246    0.0000 O.3     1  UNL1       -0.3860
     10 O           2.5369   -2.6246    0.0000 O.3     1  UNL1       -0.4788
     11 O           3.4030   -1.1246    0.0000 O.2     1  UNL1       -0.2480
     12 O           8.6230    0.9379    0.0000 O.2     1  UNL1       -0.4544
     13 O           5.1208    0.9546    0.0000 O.3     1  UNL1       -0.5058
     14 O           6.0308    2.4479    0.0000 O.2     1  UNL1       -0.2869
     15 O          10.3705    4.9312    0.0000 O.3     1  UNL1       -0.4913
     16 O          12.0910    1.9246    0.0000 O.3     1  UNL1       -0.4913
     17 O          12.0987    3.9246    0.0000 O.3     1  UNL1       -0.5009
     18 C           6.0010   -3.6246    0.0000 C.3     1  UNL1        0.1520
     19 C           5.1350   -4.1246    0.0000 C.3     1  UNL1        0.1160
     20 C           7.7331   -3.6246    0.0000 C.3     1  UNL1        0.1885
     21 C           8.5991   -4.1246    0.0000 C.3     1  UNL1        0.1341
     22 C           9.4651   -3.6246    0.0000 C.3     1  UNL1        0.1140
     23 C           9.4651   -2.6246    0.0000 C.3     1  UNL1        0.1095
     24 C           4.2690   -3.6246    0.0000 C.3     1  UNL1        0.1202
     25 C           6.0010   -2.6246    0.0000 C.3     1  UNL1        0.2316
     26 C           8.5991   -2.1246    0.0000 C.3     1  UNL1        0.0873
     27 C           4.2690   -2.6246    0.0000 C.3     1  UNL1        0.1869
     28 C           8.5991   -1.1246    0.0000 C.3     1  UNL1       -0.0361
     29 C           3.4030   -2.1246    0.0000 C.2     1  UNL1        0.3367
     30 C           6.8671   -1.1246    0.0000 C.ar    1  UNL1        0.1310
     31 C           7.7671   -0.6003    0.0000 C.ar    1  UNL1        0.0235
     32 C           5.9670   -0.6003    0.0000 C.ar    1  UNL1        0.0226
     33 C           7.7551    0.4413    0.0000 C.ar    1  UNL1        0.1462
     34 C           5.9790    0.4413    0.0000 C.ar    1  UNL1        0.1347
     35 C           6.8910    0.9446    0.0000 C.ar    1  UNL1        0.1055
     36 C           6.8948    1.9446    0.0000 C.ar    1  UNL1        0.1966
     37 C           8.6269    1.9379    0.0000 C.ar    1  UNL1        0.1395
     38 C           7.7628    2.4413    0.0000 C.ar    1  UNL1        0.0288
     39 C           9.4948    2.4346    0.0000 C.ar    1  UNL1        0.0245
     40 C          10.3589    1.9313    0.0000 C.ar    1  UNL1       -0.0054
     41 C           9.4987    3.4346    0.0000 C.ar    1  UNL1       -0.0054
     42 C          10.3666    3.9312    0.0000 C.ar    1  UNL1        0.1656
     43 C          11.2269    2.4279    0.0000 C.ar    1  UNL1        0.1656
     44 C          11.2307    3.4279    0.0000 C.ar    1  UNL1        0.2010
     45 C           9.5064    5.4346    0.0000 C.3     1  UNL1        0.0790
     46 C          12.9589    2.4212    0.0000 C.3     1  UNL1        0.0790
     47 H           6.5380   -3.3146    0.0000 H       1  UNL1        0.0687
     48 H           5.6720   -4.4346    0.0000 H       1  UNL1        0.0648
     49 H           7.1962   -3.3146    0.0000 H       1  UNL1        0.0938
     50 H           8.0622   -4.4346    0.0000 H       1  UNL1        0.0671
     51 H           9.4651   -4.2446    0.0000 H       1  UNL1        0.0648
     52 H          10.0021   -2.9346    0.0000 H       1  UNL1        0.0646
     53 H           3.7320   -3.3146    0.0000 H       1  UNL1        0.0652
     54 H           6.0010   -2.0046    0.0000 H       1  UNL1        0.1084
     55 H           8.0622   -1.8146    0.0000 H       1  UNL1        0.0621
     56 H           4.2690   -2.0046    0.0000 H       1  UNL1        0.0742
     57 H           9.2191   -1.1246    0.0000 H       1  UNL1        0.0255
     58 H           8.5991   -0.5046    0.0000 H       1  UNL1        0.0255
     59 H           7.9791   -1.1246    0.0000 H       1  UNL1        0.0255
     60 H           4.5981   -5.4346    0.0000 H       1  UNL1        0.2100
     61 H           9.1360   -5.4346    0.0000 H       1  UNL1        0.2101
     62 H          10.8681   -3.8146    0.0000 H       1  UNL1        0.2100
     63 H          10.8681   -2.4346    0.0000 H       1  UNL1        0.2100
     64 H           3.4030   -4.7446    0.0000 H       1  UNL1        0.2100
     65 H           8.3064   -0.9061    0.0000 H       1  UNL1        0.0691
     66 H           2.0000   -2.3146    0.0000 H       1  UNL1        0.2951
     67 H           5.4277   -0.9061    0.0000 H       1  UNL1        0.0691
     68 H           7.7652    3.0613    0.0000 H       1  UNL1        0.0693
     69 H           4.5792    0.6529    0.0000 H       1  UNL1        0.2922
     70 H          10.3565    1.3113    0.0000 H       1  UNL1        0.0662
     71 H           8.9630    3.7466    0.0000 H       1  UNL1        0.0662
     72 H          12.1011    4.5446    0.0000 H       1  UNL1        0.2924
     73 H           9.8185    5.9703    0.0000 H       1  UNL1        0.0660
     74 H           8.9707    5.7466    0.0000 H       1  UNL1        0.0660
     75 H           9.1943    4.8988    0.0000 H       1  UNL1        0.0660
     76 H          13.2668    1.8831    0.0000 H       1  UNL1        0.0660
     77 H          13.4970    2.7292    0.0000 H       1  UNL1        0.0660
     78 H          12.6510    2.9594    0.0000 H       1  UNL1        0.0660
@<TRIPOS>BOND
     1    18     1    1
     2    20     1    1
     3     2    20    1
     4     2    26    1
     5     3    25    1
     6     3    27    1
     7    19     4    1
     8     4    60    1
     9    25     5    1
    10     5    30    1
    11    21     6    1
    12     6    61    1
    13    22     7    1
    14     7    62    1
    15    23     8    1
    16     8    63    1
    17    24     9    1
    18     9    64    1
    19    10    29    1
    20    10    66    1
    21    11    29    2
    22    12    33   ar
    23    12    37   ar
    24    13    34    1
    25    13    69    1
    26    14    36    2
    27    15    42    1
    28    15    45    1
    29    16    43    1
    30    16    46    1
    31    17    44    1
    32    17    72    1
    33    18    19    1
    34    18    25    1
    35    18    47    1
    36    19    24    1
    37    19    48    1
    38    20    21    1
    39    20    49    1
    40    21    22    1
    41    21    50    1
    42    22    23    1
    43    22    51    1
    44    23    26    1
    45    23    52    1
    46    24    27    1
    47    24    53    1
    48    25    54    1
    49    26    28    1
    50    26    55    1
    51    27    29    1
    52    27    56    1
    53    28    57    1
    54    28    58    1
    55    28    59    1
    56    30    31   ar
    57    30    32   ar
    58    31    33   ar
    59    31    65    1
    60    32    34   ar
    61    32    67    1
    62    33    35   ar
    63    34    35   ar
    64    35    36   ar
    65    36    38   ar
    66    37    38   ar
    67    37    39    1
    68    38    68    1
    69    39    40   ar
    70    39    41   ar
    71    40    43   ar
    72    40    70    1
    73    41    42   ar
    74    41    71    1
    75    42    44   ar
    76    43    44   ar
    77    45    73    1
    78    45    74    1
    79    45    75    1
    80    46    76    1
    81    46    77    1
    82    46    78    1
