@<TRIPOS>MOLECULE
IMPHY009988
 29 28 0 0 0
SMALL
GASTEIGER

@<TRIPOS>ATOM
      1 O           4.5981   -0.5950    0.0000 O.3     1  UNL1       -0.3915
      2 C           3.7320    0.9050    0.0000 C.3     1  UNL1       -0.0242
      3 C           2.8660    0.4050    0.0000 C.3     1  UNL1       -0.0444
      4 C           4.5981    0.4050    0.0000 C.3     1  UNL1        0.0594
      5 C           5.4641    0.9050    0.0000 C.3     1  UNL1       -0.0021
      6 C           2.0000    0.9050    0.0000 C.3     1  UNL1       -0.0626
      7 C           2.8660   -0.5950    0.0000 C.3     1  UNL1       -0.0626
      8 C           6.3301    0.4050    0.0000 C.2     1  UNL1       -0.0526
      9 C           7.1962    0.9050    0.0000 C.2     1  UNL1       -0.0661
     10 C           6.3301   -0.5950    0.0000 C.2     1  UNL1       -0.0954
     11 C           8.0622    0.4050    0.0000 C.2     1  UNL1       -0.0985
     12 H           4.1306    1.3800    0.0000 H       1  UNL1        0.0293
     13 H           3.3335    1.3800    0.0000 H       1  UNL1        0.0293
     14 H           2.8660    1.0250    0.0000 H       1  UNL1        0.0296
     15 H           5.3342   -0.0200    0.0000 H       1  UNL1        0.0596
     16 H           5.8626    1.3800    0.0000 H       1  UNL1        0.0338
     17 H           5.0656    1.3800    0.0000 H       1  UNL1        0.0338
     18 H           2.3100    1.4419    0.0000 H       1  UNL1        0.0232
     19 H           1.4631    1.2150    0.0000 H       1  UNL1        0.0232
     20 H           1.6900    0.3681    0.0000 H       1  UNL1        0.0232
     21 H           2.2460   -0.5950    0.0000 H       1  UNL1        0.0232
     22 H           2.8660   -1.2150    0.0000 H       1  UNL1        0.0232
     23 H           3.4860   -0.5950    0.0000 H       1  UNL1        0.0232
     24 H           4.0611   -0.9050    0.0000 H       1  UNL1        0.2098
     25 H           7.1962    1.5250    0.0000 H       1  UNL1        0.0614
     26 H           5.7932   -0.9050    0.0000 H       1  UNL1        0.0537
     27 H           6.8671   -0.9050    0.0000 H       1  UNL1        0.0537
     28 H           8.0622   -0.2150    0.0000 H       1  UNL1        0.0535
     29 H           8.5991    0.7150    0.0000 H       1  UNL1        0.0535
@<TRIPOS>BOND
     1     1     4    1
     2     1    24    1
     3     2     3    1
     4     2     4    1
     5     2    12    1
     6     2    13    1
     7     3     6    1
     8     3     7    1
     9     3    14    1
    10     4     5    1
    11     4    15    1
    12     5     8    1
    13     5    16    1
    14     5    17    1
    15     6    18    1
    16     6    19    1
    17     6    20    1
    18     7    21    1
    19     7    22    1
    20     7    23    1
    21     8     9    1
    22     8    10    2
    23     9    11    2
    24     9    25    1
    25    10    26    1
    26    10    27    1
    27    11    28    1
    28    11    29    1
