@<TRIPOS>MOLECULE
IMPHY009889
 35 34 0 0 0
SMALL
GASTEIGER

@<TRIPOS>ATOM
      1 O           7.1962    0.7500    0.0000 O.3     1  UNL1       -0.4646
      2 O           8.0622   -0.7500    0.0000 O.2     1  UNL1       -0.2508
      3 C           4.5981    0.2500    0.0000 C.3     1  UNL1       -0.0500
      4 C           3.7320    0.7500    0.0000 C.3     1  UNL1       -0.0532
      5 C           5.4641    0.7500    0.0000 C.3     1  UNL1       -0.0185
      6 C           9.7942    0.2500    0.0000 C.3     1  UNL1       -0.0367
      7 C           2.8660    0.2500    0.0000 C.3     1  UNL1       -0.0559
      8 C           6.3301    0.2500    0.0000 C.3     1  UNL1        0.0925
      9 C           8.9282    0.7500    0.0000 C.3     1  UNL1        0.0473
     10 C          10.6603    0.7500    0.0000 C.3     1  UNL1       -0.0622
     11 C           9.7942   -0.7500    0.0000 C.3     1  UNL1       -0.0622
     12 C           8.0622    0.2500    0.0000 C.2     1  UNL1        0.3073
     13 C           2.0000    0.7500    0.0000 C.3     1  UNL1       -0.0653
     14 H           4.1996   -0.2249    0.0000 H       1  UNL1        0.0266
     15 H           4.9966   -0.2249    0.0000 H       1  UNL1        0.0266
     16 H           4.1306    1.2250    0.0000 H       1  UNL1        0.0265
     17 H           3.3335    1.2250    0.0000 H       1  UNL1        0.0265
     18 H           5.8626    1.2250    0.0000 H       1  UNL1        0.0298
     19 H           5.0656    1.2250    0.0000 H       1  UNL1        0.0298
     20 H           9.2573   -0.0600    0.0000 H       1  UNL1        0.0301
     21 H           2.4675   -0.2249    0.0000 H       1  UNL1        0.0263
     22 H           3.2646   -0.2249    0.0000 H       1  UNL1        0.0263
     23 H           5.9316   -0.2249    0.0000 H       1  UNL1        0.0697
     24 H           6.7287   -0.2249    0.0000 H       1  UNL1        0.0697
     25 H           9.3267    1.2250    0.0000 H       1  UNL1        0.0380
     26 H           8.5297    1.2250    0.0000 H       1  UNL1        0.0380
     27 H           9.1742   -0.7500    0.0000 H       1  UNL1        0.0232
     28 H           9.7942   -1.3700    0.0000 H       1  UNL1        0.0232
     29 H          10.4142   -0.7500    0.0000 H       1  UNL1        0.0232
     30 H          10.9703    0.2131    0.0000 H       1  UNL1        0.0232
     31 H          11.1972    1.0600    0.0000 H       1  UNL1        0.0232
     32 H          10.3503    1.2869    0.0000 H       1  UNL1        0.0232
     33 H           2.3100    1.2869    0.0000 H       1  UNL1        0.0230
     34 H           1.4631    1.0600    0.0000 H       1  UNL1        0.0230
     35 H           1.6900    0.2131    0.0000 H       1  UNL1        0.0230
@<TRIPOS>BOND
     1     1     8    1
     2     1    12    1
     3     2    12    2
     4     3     4    1
     5     3     5    1
     6     3    14    1
     7     3    15    1
     8     4     7    1
     9     4    16    1
    10     4    17    1
    11     5     8    1
    12     5    18    1
    13     5    19    1
    14     6     9    1
    15     6    10    1
    16     6    11    1
    17     6    20    1
    18     7    13    1
    19     7    21    1
    20     7    22    1
    21     8    23    1
    22     8    24    1
    23     9    12    1
    24     9    25    1
    25     9    26    1
    26    10    30    1
    27    10    31    1
    28    10    32    1
    29    11    27    1
    30    11    28    1
    31    11    29    1
    32    13    33    1
    33    13    34    1
    34    13    35    1
