@<TRIPOS>MOLECULE
IMPHY007838
 28 29 0 0 0
SMALL
GASTEIGER

@<TRIPOS>ATOM
      1 N           4.5981    0.0000    0.0000 N.pl3   1  UNL1       -0.3238
      2 N           6.4103   -1.1953    0.0000 N.ar    1  UNL1       -0.3404
      3 N           3.7320   -1.5000    0.0000 N.ar    1  UNL1       -0.2187
      4 N           6.4103   -2.8047    0.0000 N.ar    1  UNL1       -0.2164
      5 N           4.5981   -3.0000    0.0000 N.ar    1  UNL1       -0.2144
      6 C           5.4641   -1.5000    0.0000 C.ar    1  UNL1        0.1253
      7 C           4.5981   -1.0000    0.0000 C.ar    1  UNL1        0.1479
      8 C           3.7320    0.5000    0.0000 C.3     1  UNL1        0.0290
      9 C           5.4641   -2.5000    0.0000 C.ar    1  UNL1        0.1825
     10 C           3.7320    1.5000    0.0000 C.2     1  UNL1       -0.0684
     11 C           2.8660    2.0000    0.0000 C.2     1  UNL1       -0.0782
     12 C           6.9939   -2.0000    0.0000 C.ar    1  UNL1        0.0963
     13 C           2.8660    3.0000    0.0000 C.3     1  UNL1       -0.0440
     14 C           2.0000    1.5000    0.0000 C.3     1  UNL1       -0.0440
     15 C           3.7320   -2.5000    0.0000 C.ar    1  UNL1        0.1205
     16 H           3.1215    0.6077    0.0000 H       1  UNL1        0.0505
     17 H           3.5200   -0.0826    0.0000 H       1  UNL1        0.0505
     18 H           5.1350    0.3100    0.0000 H       1  UNL1        0.1478
     19 H           4.2690    1.8100    0.0000 H       1  UNL1        0.0587
     20 H           6.6029   -0.6059    0.0000 H       1  UNL1        0.1669
     21 H           7.6139   -2.0000    0.0000 H       1  UNL1        0.1027
     22 H           1.6900    2.0369    0.0000 H       1  UNL1        0.0274
     23 H           1.4631    1.1900    0.0000 H       1  UNL1        0.0274
     24 H           3.4860    3.0000    0.0000 H       1  UNL1        0.0274
     25 H           2.8660    3.6200    0.0000 H       1  UNL1        0.0274
     26 H           2.2460    3.0000    0.0000 H       1  UNL1        0.0274
     27 H           2.3100    0.9631    0.0000 H       1  UNL1        0.0274
     28 H           3.1951   -2.8100    0.0000 H       1  UNL1        0.1048
@<TRIPOS>BOND
     1     1     7    1
     2     1     8    1
     3     1    18    1
     4     2     6   ar
     5     2    12   ar
     6     2    20    1
     7     3     7   ar
     8     3    15   ar
     9     4     9   ar
    10     4    12   ar
    11     5     9   ar
    12     5    15   ar
    13     6     7   ar
    14     6     9   ar
    15     8    10    1
    16     8    16    1
    17     8    17    1
    18    10    11    2
    19    10    19    1
    20    11    13    1
    21    11    14    1
    22    12    21    1
    23    13    24    1
    24    13    25    1
    25    13    26    1
    26    14    22    1
    27    14    23    1
    28    14    27    1
    29    15    28    1
