@<TRIPOS>MOLECULE
IMPHY007184
 41 44 0 0 0
SMALL
GASTEIGER

@<TRIPOS>ATOM
      1 O           3.7782    1.4936    0.0000 O.3     1  UNL1       -0.4908
      2 O           5.5442    2.5314    0.0000 O.3     1  UNL1       -0.4914
      3 N           6.3903   -2.0348    0.0000 N.pl3   1  UNL1       -0.3321
      4 C           5.5321   -0.5378    0.0000 C.ar    1  UNL1        0.0107
      5 C           6.4421   -0.0310    0.0000 C.ar    1  UNL1       -0.0327
      6 C           5.5321   -1.5378    0.0000 C.ar    1  UNL1        0.0382
      7 C           7.2814   -0.5592    0.0000 C.3     1  UNL1       -0.0112
      8 C           7.2558   -1.5506    0.0000 C.3     1  UNL1        0.0159
      9 C           4.6660   -0.0378    0.0000 C.ar    1  UNL1        0.0371
     10 C           3.8000   -0.5378    0.0000 C.ar    1  UNL1       -0.0064
     11 C           4.6660   -2.0378    0.0000 C.ar    1  UNL1       -0.0323
     12 C           3.8000   -1.5378    0.0000 C.ar    1  UNL1       -0.0154
     13 C           6.4501    1.0106    0.0000 C.ar    1  UNL1       -0.0124
     14 C           4.6500    1.0037    0.0000 C.ar    1  UNL1        0.1698
     15 C           5.5480    1.5314    0.0000 C.ar    1  UNL1        0.1624
     16 C           6.3829   -3.0348    0.0000 C.3     1  UNL1        0.0007
     17 C           2.9061   -0.0032    0.0000 C.ar    1  UNL1       -0.0533
     18 C           2.9061   -2.0725    0.0000 C.ar    1  UNL1       -0.0540
     19 C           2.0000   -0.5170    0.0000 C.ar    1  UNL1       -0.0611
     20 C           2.0000   -1.5587    0.0000 C.ar    1  UNL1       -0.0612
     21 C           3.7667    2.4936    0.0000 C.3     1  UNL1        0.0790
     22 C           6.4082    3.0348    0.0000 C.3     1  UNL1        0.0790
     23 H           7.8885   -0.6851    0.0000 H       1  UNL1        0.0329
     24 H           7.5131    0.0158    0.0000 H       1  UNL1        0.0329
     25 H           7.4575   -2.1369    0.0000 H       1  UNL1        0.0467
     26 H           7.8685   -1.4562    0.0000 H       1  UNL1        0.0467
     27 H           4.6660   -2.6578    0.0000 H       1  UNL1        0.0642
     28 H           6.9882    1.3185    0.0000 H       1  UNL1        0.0658
     29 H           5.7629   -3.0302    0.0000 H       1  UNL1        0.0428
     30 H           6.3783   -3.6547    0.0000 H       1  UNL1        0.0428
     31 H           7.0029   -3.0393    0.0000 H       1  UNL1        0.0428
     32 H           2.9132    0.6168    0.0000 H       1  UNL1        0.0624
     33 H           2.9132   -2.6925    0.0000 H       1  UNL1        0.0624
     34 H           1.4643   -0.2050    0.0000 H       1  UNL1        0.0618
     35 H           1.4643   -1.8707    0.0000 H       1  UNL1        0.0618
     36 H           4.3866    2.5007    0.0000 H       1  UNL1        0.0660
     37 H           3.7595    3.1135    0.0000 H       1  UNL1        0.0660
     38 H           3.1467    2.4864    0.0000 H       1  UNL1        0.0660
     39 H           6.7203    2.4990    0.0000 H       1  UNL1        0.0660
     40 H           6.9440    3.3468    0.0000 H       1  UNL1        0.0660
     41 H           6.0962    3.5705    0.0000 H       1  UNL1        0.0660
@<TRIPOS>BOND
     1     1    14    1
     2     1    21    1
     3     2    15    1
     4     2    22    1
     5     3     6    1
     6     3     8    1
     7     3    16    1
     8     4     5   ar
     9     4     6   ar
    10     4     9   ar
    11     5     7    1
    12     5    13   ar
    13     6    11   ar
    14     7     8    1
    15     7    23    1
    16     7    24    1
    17     8    25    1
    18     8    26    1
    19     9    10   ar
    20     9    14   ar
    21    10    12   ar
    22    10    17   ar
    23    11    12   ar
    24    11    27    1
    25    12    18   ar
    26    13    15   ar
    27    13    28    1
    28    14    15   ar
    29    16    29    1
    30    16    30    1
    31    16    31    1
    32    17    19   ar
    33    17    32    1
    34    18    20   ar
    35    18    33    1
    36    19    20   ar
    37    19    34    1
    38    20    35    1
    39    21    36    1
    40    21    37    1
    41    21    38    1
    42    22    39    1
    43    22    40    1
    44    22    41    1
