@<TRIPOS>MOLECULE
IMPHY016375
 26 25 0 0 0
SMALL
GASTEIGER

@<TRIPOS>ATOM
      1 C           3.7320    0.2500    0.0000 C.3     1  UNL1       -0.0441
      2 C           4.5981    0.7500    0.0000 C.3     1  UNL1       -0.0505
      3 C           5.4641    0.2500    0.0000 C.3     1  UNL1       -0.0531
      4 C           2.8660    0.7500    0.0000 C.3     1  UNL1       -0.0533
      5 C           3.7320   -0.7500    0.0000 C.3     1  UNL1       -0.0624
      6 C           6.3301    0.7500    0.0000 C.3     1  UNL1       -0.0559
      7 C           2.0000    0.2500    0.0000 C.3     1  UNL1       -0.0650
      8 C           7.1962    0.2500    0.0000 C.3     1  UNL1       -0.0653
      9 H           4.2690   -0.0600    0.0000 H       1  UNL1        0.0298
     10 H           4.9966    1.2250    0.0000 H       1  UNL1        0.0268
     11 H           4.1996    1.2250    0.0000 H       1  UNL1        0.0268
     12 H           5.0656   -0.2249    0.0000 H       1  UNL1        0.0265
     13 H           5.8626   -0.2249    0.0000 H       1  UNL1        0.0265
     14 H           3.2646    1.2250    0.0000 H       1  UNL1        0.0265
     15 H           2.4675    1.2250    0.0000 H       1  UNL1        0.0265
     16 H           3.1120   -0.7500    0.0000 H       1  UNL1        0.0232
     17 H           3.7320   -1.3700    0.0000 H       1  UNL1        0.0232
     18 H           4.3520   -0.7500    0.0000 H       1  UNL1        0.0232
     19 H           6.7287    1.2250    0.0000 H       1  UNL1        0.0263
     20 H           5.9316    1.2250    0.0000 H       1  UNL1        0.0263
     21 H           1.6900    0.7869    0.0000 H       1  UNL1        0.0230
     22 H           1.4631   -0.0600    0.0000 H       1  UNL1        0.0230
     23 H           2.3100   -0.2869    0.0000 H       1  UNL1        0.0230
     24 H           6.8862   -0.2869    0.0000 H       1  UNL1        0.0230
     25 H           7.7331   -0.0600    0.0000 H       1  UNL1        0.0230
     26 H           7.5062    0.7869    0.0000 H       1  UNL1        0.0230
@<TRIPOS>BOND
     1     1     2    1
     2     1     4    1
     3     1     5    1
     4     1     9    1
     5     2     3    1
     6     2    10    1
     7     2    11    1
     8     3     6    1
     9     3    12    1
    10     3    13    1
    11     4     7    1
    12     4    14    1
    13     4    15    1
    14     5    16    1
    15     5    17    1
    16     5    18    1
    17     6     8    1
    18     6    19    1
    19     6    20    1
    20     7    21    1
    21     7    22    1
    22     7    23    1
    23     8    24    1
    24     8    25    1
    25     8    26    1
