@<TRIPOS>MOLECULE
IMPHY011444
 38 41 0 0 0
SMALL
GASTEIGER

@<TRIPOS>ATOM
      1 O           2.3079    1.2358    0.0000 O.3     1  UNL1       -0.3810
      2 O           3.3012    2.9718    0.0000 O.3     1  UNL1       -0.3918
      3 N           5.1080    1.2328    0.0000 N.3     1  UNL1       -0.2950
      4 N           6.0961   -2.9574    0.0000 N.ar    1  UNL1       -0.3604
      5 C           5.0920    0.1913    0.0000 C.3     1  UNL1        0.0398
      6 C           4.2260   -0.3087    0.0000 C.2     1  UNL1       -0.0233
      7 C           3.3079    1.2397    0.0000 C.3     1  UNL1        0.1202
      8 C           5.9580   -0.3087    0.0000 C.3     1  UNL1       -0.0059
      9 C           4.2100    1.7605    0.0000 C.3     1  UNL1        0.0339
     10 C           3.3160    0.1981    0.0000 C.2     1  UNL1       -0.0442
     11 C           4.2260   -1.3087    0.0000 C.ar    1  UNL1       -0.0111
     12 C           5.9580   -1.3087    0.0000 C.ar    1  UNL1       -0.0200
     13 C           5.0920   -1.8087    0.0000 C.ar    1  UNL1        0.0103
     14 C           2.8046    2.1038    0.0000 C.3     1  UNL1        0.0778
     15 C           5.1080   -2.8502    0.0000 C.ar    1  UNL1        0.0473
     16 C           5.9798    1.7227    0.0000 C.3     1  UNL1       -0.0121
     17 C           6.5759   -2.0871    0.0000 C.ar    1  UNL1        0.0060
     18 C           3.3160   -1.8156    0.0000 C.ar    1  UNL1       -0.0536
     19 C           4.2100   -3.3780    0.0000 C.ar    1  UNL1       -0.0378
     20 C           3.3079   -2.8572    0.0000 C.ar    1  UNL1       -0.0592
     21 H           5.8313    0.6106    0.0000 H       1  UNL1        0.0515
     22 H           6.5686   -0.4164    0.0000 H       1  UNL1        0.0332
     23 H           6.1700    0.2739    0.0000 H       1  UNL1        0.0332
     24 H           4.6110    2.2334    0.0000 H       1  UNL1        0.0459
     25 H           3.8127    2.2365    0.0000 H       1  UNL1        0.0459
     26 H           2.7826   -0.1181    0.0000 H       1  UNL1        0.0605
     27 H           2.3281    2.5005    0.0000 H       1  UNL1        0.0589
     28 H           2.3312    1.7034    0.0000 H       1  UNL1        0.0589
     29 H           6.2836    1.1822    0.0000 H       1  UNL1        0.0391
     30 H           6.5203    2.0265    0.0000 H       1  UNL1        0.0391
     31 H           5.6760    2.2632    0.0000 H       1  UNL1        0.0391
     32 H           7.1938   -2.0354    0.0000 H       1  UNL1        0.0810
     33 H           2.7826   -1.4994    0.0000 H       1  UNL1        0.0624
     34 H           6.3821   -3.5075    0.0000 H       1  UNL1        0.1653
     35 H           2.0000    0.6977    0.0000 H       1  UNL1        0.2107
     36 H           4.2124   -3.9980    0.0000 H       1  UNL1        0.0638
     37 H           2.7698   -3.1651    0.0000 H       1  UNL1        0.0618
     38 H           2.9892    3.5075    0.0000 H       1  UNL1        0.2095
@<TRIPOS>BOND
     1     7     1    1
     2     1    35    1
     3     2    14    1
     4     2    38    1
     5     3     5    1
     6     3     9    1
     7     3    16    1
     8     4    15   ar
     9     4    17   ar
    10     4    34    1
    11     5     6    1
    12     5     8    1
    13     5    21    1
    14     6    10    2
    15     6    11    1
    16     7     9    1
    17     7    10    1
    18     7    14    1
    19     8    12    1
    20     8    22    1
    21     8    23    1
    22     9    24    1
    23     9    25    1
    24    10    26    1
    25    11    13   ar
    26    11    18   ar
    27    12    13   ar
    28    12    17   ar
    29    13    15   ar
    30    14    27    1
    31    14    28    1
    32    15    19   ar
    33    16    29    1
    34    16    30    1
    35    16    31    1
    36    17    32    1
    37    18    20   ar
    38    18    33    1
    39    19    20   ar
    40    19    36    1
    41    20    37    1
