@<TRIPOS>MOLECULE
IMPHY011498
 82 87 0 0 0
SMALL
GASTEIGER

@<TRIPOS>ATOM
      1 O           2.9269   -1.5356    0.0000 O.3     1  UNL1       -0.3730
      2 O           4.9852   -2.8614    0.0000 O.3     1  UNL1       -0.3656
      3 O           5.6638    1.6418    0.0000 O.3     1  UNL1       -0.4574
      4 O           2.1240    1.6555    0.0000 O.3     1  UNL1       -0.3910
      5 O           8.2401    0.1104    0.0000 O.3     1  UNL1       -0.4679
      6 O           7.3740   -1.3896    0.0000 O.2     1  UNL1       -0.2509
      7 O           4.8152    3.1518    0.0000 O.2     1  UNL1       -0.2453
      8 O          10.0874   -3.7084    0.0000 O.2     1  UNL1       -0.4707
      9 C           4.7760    0.1104    0.0000 C.3     1  UNL1        0.0152
     10 C           3.9099   -0.3896    0.0000 C.3     1  UNL1        0.0066
     11 C           5.6420   -1.3896    0.0000 C.3     1  UNL1        0.0242
     12 C           5.6420   -0.3896    0.0000 C.3     1  UNL1       -0.0102
     13 C           2.9999    0.1172    0.0000 C.3     1  UNL1        0.0232
     14 C           3.9099   -1.3896    0.0000 C.3     1  UNL1        0.0897
     15 C           4.7760   -1.8896    0.0000 C.3     1  UNL1        0.0952
     16 C           4.7920    1.1519    0.0000 C.3     1  UNL1        0.1117
     17 C           2.9919    1.1588    0.0000 C.3     1  UNL1        0.0664
     18 C           6.3790   -2.0567    0.0000 C.2     1  UNL1       -0.0329
     19 C           2.4131   -0.6849    0.0000 C.3     1  UNL1        0.0562
     20 C           3.8940    1.6796    0.0000 C.3     1  UNL1        0.0116
     21 C           5.9739   -2.9645    0.0000 C.3     1  UNL1        0.0819
     22 C           5.6420    0.6104    0.0000 C.3     1  UNL1       -0.0555
     23 C           6.5080    0.1104    0.0000 C.3     1  UNL1        0.0492
     24 C           6.5080   -0.8896    0.0000 C.3     1  UNL1       -0.0530
     25 C           2.0000    0.1057    0.0000 C.3     1  UNL1       -0.0547
     26 C           7.3614   -2.1634    0.0000 C.2     1  UNL1       -0.0628
     27 C           6.7094   -3.6245    0.0000 C.3     1  UNL1       -0.0121
     28 C           7.5652   -3.1304    0.0000 C.3     1  UNL1        0.0109
     29 C           7.3740   -0.3896    0.0000 C.2     1  UNL1        0.3071
     30 C           8.0325   -1.4220    0.0000 C.3     1  UNL1       -0.0429
     31 C           8.4784   -3.5379    0.0000 C.ar    1  UNL1       -0.0025
     32 C           5.6753    2.6418    0.0000 C.2     1  UNL1        0.3348
     33 C           8.6855   -4.5162    0.0000 C.ar    1  UNL1       -0.0202
     34 C           9.3448   -3.0386    0.0000 C.ar    1  UNL1        0.0954
     35 C           6.5471    3.1317    0.0000 C.2     1  UNL1        0.0293
     36 C           9.6799   -4.6216    0.0000 C.ar    1  UNL1        0.0920
     37 C           9.1061   -0.3896    0.0000 C.3     1  UNL1        0.0817
     38 C           7.4073    2.6217    0.0000 C.3     1  UNL1       -0.0333
     39 C           6.5586    4.1316    0.0000 C.2     1  UNL1       -0.0774
     40 C           7.4304    4.6216    0.0000 C.3     1  UNL1       -0.0461
     41 H           3.9099    0.4604    0.0000 H       1  UNL1        0.0340
     42 H           6.1789   -0.6996    0.0000 H       1  UNL1        0.0322
     43 H           3.7510   -2.2246    0.0000 H       1  UNL1        0.0625
     44 H           4.0889   -2.3901    0.0000 H       1  UNL1        0.0631
     45 H           4.7980    1.7718    0.0000 H       1  UNL1        0.0740
     46 H           2.4568    0.8457    0.0000 H       1  UNL1        0.0601
     47 H           1.9653   -0.2561    0.0000 H       1  UNL1        0.0566
     48 H           1.9292   -1.0724    0.0000 H       1  UNL1        0.0566
     49 H           4.2950    2.1525    0.0000 H       1  UNL1        0.0326
     50 H           3.4967    2.1556    0.0000 H       1  UNL1        0.0326
     51 H           5.6292   -3.7415    0.0000 H       1  UNL1        0.0644
     52 H           5.9520    0.0734    0.0000 H       1  UNL1        0.0236
     53 H           6.1789    0.9204    0.0000 H       1  UNL1        0.0236
     54 H           5.3320    1.1473    0.0000 H       1  UNL1        0.0236
     55 H           6.9065    0.5853    0.0000 H       1  UNL1        0.0381
     56 H           6.1095    0.5853    0.0000 H       1  UNL1        0.0381
     57 H           6.8180   -1.4266    0.0000 H       1  UNL1        0.0239
     58 H           7.0450   -0.5796    0.0000 H       1  UNL1        0.0239
     59 H           6.1980   -0.3527    0.0000 H       1  UNL1        0.0239
     60 H           1.9928    0.7256    0.0000 H       1  UNL1        0.0237
     61 H           1.3800    0.0985    0.0000 H       1  UNL1        0.0237
     62 H           2.0072   -0.5143    0.0000 H       1  UNL1        0.0237
     63 H           6.2491   -4.0399    0.0000 H       1  UNL1        0.0302
     64 H           7.0741   -4.1258    0.0000 H       1  UNL1        0.0302
     65 H           8.0475   -2.7408    0.0000 H       1  UNL1        0.0396
     66 H           2.1216    2.2755    0.0000 H       1  UNL1        0.2098
     67 H           8.4922   -1.8381    0.0000 H       1  UNL1        0.0275
     68 H           8.4485   -0.9623    0.0000 H       1  UNL1        0.0275
     69 H           7.5728   -1.0059    0.0000 H       1  UNL1        0.0275
     70 H           8.2702   -4.9766    0.0000 H       1  UNL1        0.0652
     71 H           9.4102   -2.4221    0.0000 H       1  UNL1        0.1032
     72 H           9.9894   -5.1588    0.0000 H       1  UNL1        0.1029
     73 H           8.7961   -0.9266    0.0000 H       1  UNL1        0.0661
     74 H           9.6430   -0.6996    0.0000 H       1  UNL1        0.0661
     75 H           9.4161    0.1473    0.0000 H       1  UNL1        0.0661
     76 H           7.0911    2.0884    0.0000 H       1  UNL1        0.0280
     77 H           7.9406    2.3056    0.0000 H       1  UNL1        0.0280
     78 H           7.7234    3.1550    0.0000 H       1  UNL1        0.0280
     79 H           6.0253    4.4478    0.0000 H       1  UNL1        0.0574
     80 H           7.7342    4.0811    0.0000 H       1  UNL1        0.0272
     81 H           7.9709    4.9254    0.0000 H       1  UNL1        0.0272
     82 H           7.1266    5.1621    0.0000 H       1  UNL1        0.0272
@<TRIPOS>BOND
     1     1    14    1
     2     1    19    1
     3     2    15    1
     4     2    21    1
     5    16     3    1
     6     3    32    1
     7    17     4    1
     8     4    66    1
     9     5    29    1
    10     5    37    1
    11     6    29    2
    12     7    32    2
    13     8    34   ar
    14     8    36   ar
    15     9    10    1
    16     9    12    1
    17     9    16    1
    18     9    22    1
    19    10    13    1
    20    10    14    1
    21    10    41    1
    22    11    12    1
    23    11    15    1
    24    11    18    1
    25    11    24    1
    26    12    23    1
    27    12    42    1
    28    13    17    1
    29    13    19    1
    30    13    25    1
    31    14    15    1
    32    14    43    1
    33    15    44    1
    34    16    20    1
    35    16    45    1
    36    17    20    1
    37    17    46    1
    38    18    21    1
    39    18    26    2
    40    19    47    1
    41    19    48    1
    42    20    49    1
    43    20    50    1
    44    21    27    1
    45    21    51    1
    46    22    52    1
    47    22    53    1
    48    22    54    1
    49    23    29    1
    50    23    55    1
    51    23    56    1
    52    24    57    1
    53    24    58    1
    54    24    59    1
    55    25    60    1
    56    25    61    1
    57    25    62    1
    58    26    28    1
    59    26    30    1
    60    27    28    1
    61    27    63    1
    62    27    64    1
    63    28    31    1
    64    28    65    1
    65    30    67    1
    66    30    68    1
    67    30    69    1
    68    31    33   ar
    69    31    34   ar
    70    32    35    1
    71    33    36   ar
    72    33    70    1
    73    34    71    1
    74    35    38    1
    75    35    39    2
    76    36    72    1
    77    37    73    1
    78    37    74    1
    79    37    75    1
    80    38    76    1
    81    38    77    1
    82    38    78    1
    83    39    40    1
    84    39    79    1
    85    40    80    1
    86    40    81    1
    87    40    82    1
