@<TRIPOS>MOLECULE
IMPHY003155
 54 58 0 0 0
SMALL
GASTEIGER

@<TRIPOS>ATOM
      1 O           5.0517    0.8207    0.0000 O.3     1  UNL1       -0.3450
      2 O           5.4517    2.4207    0.0000 O.3     1  UNL1       -0.3618
      3 O           7.1838    1.4207    0.0000 O.3     1  UNL1       -0.3861
      4 O           4.5639   -2.1108    0.0000 O.3     1  UNL1       -0.3911
      5 O           2.6196   -1.1760    0.0000 O.3     1  UNL1       -0.3914
      6 O           3.8114   -0.4763    0.0000 O.2     1  UNL1       -0.2916
      7 C           5.4517   -0.5793    0.0000 C.3     1  UNL1        0.0322
      8 C           4.5857   -0.0793    0.0000 C.3     1  UNL1        0.0132
      9 C           4.5857    0.9207    0.0000 C.3     1  UNL1        0.0956
     10 C           6.3178   -0.0793    0.0000 C.3     1  UNL1        0.0057
     11 C           5.4517    1.4207    0.0000 C.3     1  UNL1        0.2073
     12 C           6.3178    0.9207    0.0000 C.3     1  UNL1        0.1137
     13 C           7.2278   -0.5861    0.0000 C.3     1  UNL1       -0.0288
     14 C           4.4812    1.9152    0.0000 C.3     1  UNL1       -0.0279
     15 C           5.4357   -1.6208    0.0000 C.3     1  UNL1        0.0637
     16 C           5.0517    0.0207    0.0000 C.3     1  UNL1        0.0597
     17 C           3.0871   -0.2920    0.0000 C.3     1  UNL1        0.0604
     18 C           3.5030    2.1231    0.0000 C.3     1  UNL1       -0.0097
     19 C           3.6722    0.5140    0.0000 C.2     1  UNL1        0.1706
     20 C           2.4193    1.0664    0.0000 C.3     1  UNL1       -0.0196
     21 C           7.2358   -1.6277    0.0000 C.3     1  UNL1       -0.0452
     22 C           6.3337   -2.1486    0.0000 C.3     1  UNL1       -0.0257
     23 C           3.0030    1.2571    0.0000 C.2     1  UNL1       -0.0081
     24 C           8.2277   -0.5746    0.0000 C.3     1  UNL1       -0.0595
     25 C           7.7177    0.2856    0.0000 C.3     1  UNL1       -0.0595
     26 C           2.0895    1.6639    0.0000 C.2     1  UNL1       -0.0919
     27 H           4.5857   -0.9293    0.0000 H       1  UNL1        0.0344
     28 H           7.0539    0.3457    0.0000 H       1  UNL1        0.0340
     29 H           6.3178    1.5407    0.0000 H       1  UNL1        0.0650
     30 H           5.1012    1.9152    0.0000 H       1  UNL1        0.0282
     31 H           4.5460    2.5318    0.0000 H       1  UNL1        0.0282
     32 H           5.4297   -2.2408    0.0000 H       1  UNL1        0.0600
     33 H           4.4647    0.2202    0.0000 H       1  UNL1        0.0567
     34 H           5.6451    0.2004    0.0000 H       1  UNL1        0.0567
     35 H           3.4436   -0.7992    0.0000 H       1  UNL1        0.0597
     36 H           3.1573    2.8997    0.0000 H       1  UNL1        0.0351
     37 H           2.0355    1.5533    0.0000 H       1  UNL1        0.0296
     38 H           1.8947    0.7359    0.0000 H       1  UNL1        0.0296
     39 H           7.4494   -2.2098    0.0000 H       1  UNL1        0.0271
     40 H           7.8458   -1.5169    0.0000 H       1  UNL1        0.0271
     41 H           5.9328   -2.6214    0.0000 H       1  UNL1        0.0290
     42 H           6.7310   -2.6245    0.0000 H       1  UNL1        0.0290
     43 H           8.2582   -0.0182    0.0000 H       1  UNL1        0.0235
     44 H           8.0215    0.8261    0.0000 H       1  UNL1        0.0235
     45 H           7.1772    0.5894    0.0000 H       1  UNL1        0.0235
     46 H           8.2349   -1.1945    0.0000 H       1  UNL1        0.0235
     47 H           8.8477   -0.5674    0.0000 H       1  UNL1        0.0235
     48 H           8.2205    0.0454    0.0000 H       1  UNL1        0.0235
     49 H           5.9887    2.7307    0.0000 H       1  UNL1        0.2129
     50 H           7.1838    2.0407    0.0000 H       1  UNL1        0.2100
     51 H           4.5568   -2.7307    0.0000 H       1  UNL1        0.2098
     52 H           2.0000   -1.1990    0.0000 H       1  UNL1        0.2098
     53 H           2.0248    2.2805    0.0000 H       1  UNL1        0.0539
     54 H           1.5879    1.2996    0.0000 H       1  UNL1        0.0539
@<TRIPOS>BOND
     1     1    11    1
     2     1    16    1
     3    11     2    1
     4     2    49    1
     5    12     3    1
     6     3    50    1
     7    15     4    1
     8     4    51    1
     9    17     5    1
    10     5    52    1
    11     6    19    2
    12     7     8    1
    13     7    10    1
    14     7    15    1
    15     7    16    1
    16     8     9    1
    17     8    17    1
    18     8    27    1
    19     9    11    1
    20     9    14    1
    21     9    19    1
    22    10    12    1
    23    10    13    1
    24    10    28    1
    25    11    12    1
    26    12    29    1
    27    13    21    1
    28    13    24    1
    29    13    25    1
    30    14    18    1
    31    14    30    1
    32    14    31    1
    33    15    22    1
    34    15    32    1
    35    16    33    1
    36    16    34    1
    37    17    20    1
    38    17    35    1
    39    18    20    1
    40    18    23    1
    41    18    36    1
    42    19    23    1
    43    20    37    1
    44    20    38    1
    45    21    22    1
    46    21    39    1
    47    21    40    1
    48    22    41    1
    49    22    42    1
    50    23    26    2
    51    24    46    1
    52    24    47    1
    53    24    48    1
    54    25    43    1
    55    25    44    1
    56    25    45    1
    57    26    53    1
    58    26    54    1
