@<TRIPOS>MOLECULE
IMPHY008019
 37 40 0 0 0
SMALL
GASTEIGER

@<TRIPOS>ATOM
      1 O           4.2974   -3.0626    0.0000 O.3     1  UNL1       -0.4779
      2 O           4.3217    1.0917    0.0000 O.2     1  UNL1       -0.4543
      3 O           2.5357   -1.9534    0.0000 O.3     1  UNL1       -0.5032
      4 O           6.9198   -0.4083    0.0000 O.2     1  UNL1       -0.2864
      5 O           6.0659    4.1609    0.0000 O.3     1  UNL1       -0.5066
      6 C           5.2370   -3.6050    0.0000 C.3     1  UNL1        0.1237
      7 C           5.2038   -1.4498    0.0000 C.ar    1  UNL1        0.0345
      8 C           4.3058   -1.9776    0.0000 C.ar    1  UNL1        0.1709
      9 C           5.1877   -0.4083    0.0000 C.ar    1  UNL1        0.0754
     10 C           6.1725   -3.0553    0.0000 C.2     1  UNL1       -0.0409
     11 C           6.1557   -1.9705    0.0000 C.2     1  UNL1       -0.0504
     12 C           4.3217    0.0917    0.0000 C.ar    1  UNL1        0.1435
     13 C           5.7404   -4.4691    0.0000 C.3     1  UNL1       -0.0215
     14 C           4.7404   -4.4730    0.0000 C.3     1  UNL1       -0.0215
     15 C           3.4037   -1.4568    0.0000 C.ar    1  UNL1        0.1627
     16 C           6.0538    0.0917    0.0000 C.ar    1  UNL1        0.2009
     17 C           3.4117   -0.4152    0.0000 C.ar    1  UNL1        0.0266
     18 C           6.0538    1.0917    0.0000 C.ar    1  UNL1        0.0648
     19 C           5.1877    1.5917    0.0000 C.ar    1  UNL1        0.1427
     20 C           6.9638    1.5985    0.0000 C.ar    1  UNL1       -0.0439
     21 C           5.1717    2.6332    0.0000 C.ar    1  UNL1        0.0229
     22 C           6.9718    2.6401    0.0000 C.ar    1  UNL1       -0.0193
     23 C           6.0697    3.1609    0.0000 C.ar    1  UNL1        0.1204
     24 H           6.7129   -3.3591    0.0000 H       1  UNL1        0.0611
     25 H           6.6866   -1.6502    0.0000 H       1  UNL1        0.0623
     26 H           5.2046   -4.7812    0.0000 H       1  UNL1        0.0271
     27 H           6.0524   -5.0049    0.0000 H       1  UNL1        0.0271
     28 H           4.2022   -4.1651    0.0000 H       1  UNL1        0.0271
     29 H           4.4324   -5.0111    0.0000 H       1  UNL1        0.0271
     30 H           5.2785   -4.7809    0.0000 H       1  UNL1        0.0271
     31 H           6.2761   -4.1571    0.0000 H       1  UNL1        0.0271
     32 H           2.8784   -0.0990    0.0000 H       1  UNL1        0.0692
     33 H           7.4971    1.2823    0.0000 H       1  UNL1        0.0627
     34 H           4.6312    2.9370    0.0000 H       1  UNL1        0.0691
     35 H           7.5099    2.9480    0.0000 H       1  UNL1        0.0654
     36 H           2.0000   -1.6414    0.0000 H       1  UNL1        0.2923
     37 H           6.6016    4.4730    0.0000 H       1  UNL1        0.2921
@<TRIPOS>BOND
     1     1     6    1
     2     1     8    1
     3     2    12   ar
     4     2    19   ar
     5     3    15    1
     6     3    36    1
     7     4    16    2
     8     5    23    1
     9     5    37    1
    10     6    10    1
    11     6    13    1
    12     6    14    1
    13     7     8   ar
    14     7     9   ar
    15     7    11    1
    16     8    15   ar
    17     9    12   ar
    18     9    16   ar
    19    10    11    2
    20    10    24    1
    21    11    25    1
    22    12    17   ar
    23    13    26    1
    24    13    27    1
    25    13    31    1
    26    14    28    1
    27    14    29    1
    28    14    30    1
    29    15    17   ar
    30    16    18   ar
    31    17    32    1
    32    18    19   ar
    33    18    20   ar
    34    19    21   ar
    35    20    22   ar
    36    20    33    1
    37    21    23   ar
    38    21    34    1
    39    22    23   ar
    40    22    35    1
