@<TRIPOS>MOLECULE
IMPHY003431
 42 44 0 0 0
SMALL
GASTEIGER

@<TRIPOS>ATOM
      1 O           6.0682   -0.5223    0.0000 O.3     1  UNL1       -0.4827
      2 O           6.9343   -2.0223    0.0000 O.3     1  UNL1       -0.4946
      3 O           6.0682    2.4777    0.0000 O.2     1  UNL1       -0.2917
      4 O           4.3198    2.5123    0.0000 O.3     1  UNL1       -0.4942
      5 O          10.3984   -2.0223    0.0000 O.3     1  UNL1       -0.4950
      6 O           2.5381   -0.5464    0.0000 O.3     1  UNL1       -0.5065
      7 C           6.9343   -0.0223    0.0000 C.3     1  UNL1        0.1355
      8 C           6.9343    0.9777    0.0000 C.3     1  UNL1        0.0521
      9 C           7.8003   -0.5223    0.0000 C.ar    1  UNL1        0.0349
     10 C           5.2022    0.9777    0.0000 C.ar    1  UNL1        0.1009
     11 C           6.0682    1.4777    0.0000 C.2     1  UNL1        0.1740
     12 C           5.2022   -0.0223    0.0000 C.ar    1  UNL1        0.1389
     13 C           7.8003   -1.5223    0.0000 C.ar    1  UNL1        0.1302
     14 C           4.3083    1.5124    0.0000 C.ar    1  UNL1        0.1375
     15 C           8.6663   -0.0223    0.0000 C.ar    1  UNL1       -0.0481
     16 C           4.3083   -0.5569    0.0000 C.ar    1  UNL1        0.0225
     17 C           8.6663   -2.0223    0.0000 C.ar    1  UNL1        0.0221
     18 C           3.4022    0.9985    0.0000 C.ar    1  UNL1        0.0225
     19 C           3.4022   -0.0431    0.0000 C.ar    1  UNL1        0.1238
     20 C           9.5323   -0.5223    0.0000 C.ar    1  UNL1       -0.0193
     21 C           9.5323   -1.5223    0.0000 C.ar    1  UNL1        0.1236
     22 C           6.9343   -3.0223    0.0000 C.3     1  UNL1        0.0788
     23 C           3.4597    3.0223    0.0000 C.3     1  UNL1        0.0788
     24 C          11.2644   -1.5223    0.0000 C.3     1  UNL1        0.0788
     25 H           6.9343   -0.6423    0.0000 H       1  UNL1        0.0790
     26 H           7.5449    0.8701    0.0000 H       1  UNL1        0.0385
     27 H           7.1463    1.5603    0.0000 H       1  UNL1        0.0385
     28 H           8.6663    0.5977    0.0000 H       1  UNL1        0.0624
     29 H           4.3154   -1.1769    0.0000 H       1  UNL1        0.0691
     30 H           8.6663   -2.6423    0.0000 H       1  UNL1        0.0691
     31 H           2.8665    1.3106    0.0000 H       1  UNL1        0.0691
     32 H          10.0693   -0.2123    0.0000 H       1  UNL1        0.0654
     33 H           6.3143   -3.0223    0.0000 H       1  UNL1        0.0660
     34 H           6.9343   -3.6423    0.0000 H       1  UNL1        0.0660
     35 H           7.5543   -3.0223    0.0000 H       1  UNL1        0.0660
     36 H           2.0000   -0.2385    0.0000 H       1  UNL1        0.2921
     37 H           3.7758    3.5556    0.0000 H       1  UNL1        0.0660
     38 H           2.9263    3.3385    0.0000 H       1  UNL1        0.0660
     39 H           3.1435    2.4890    0.0000 H       1  UNL1        0.0660
     40 H          11.5744   -2.0592    0.0000 H       1  UNL1        0.0660
     41 H          11.8013   -1.2123    0.0000 H       1  UNL1        0.0660
     42 H          10.9544   -0.9854    0.0000 H       1  UNL1        0.0660
@<TRIPOS>BOND
     1     1     7    1
     2     1    12    1
     3     2    13    1
     4     2    22    1
     5     3    11    2
     6     4    14    1
     7     4    23    1
     8     5    21    1
     9     5    24    1
    10     6    19    1
    11     6    36    1
    12     7     8    1
    13     7     9    1
    14     7    25    1
    15     8    11    1
    16     8    26    1
    17     8    27    1
    18     9    13   ar
    19     9    15   ar
    20    10    11    1
    21    10    12   ar
    22    10    14   ar
    23    12    16   ar
    24    13    17   ar
    25    14    18   ar
    26    15    20   ar
    27    15    28    1
    28    16    19   ar
    29    16    29    1
    30    17    21   ar
    31    17    30    1
    32    18    19   ar
    33    18    31    1
    34    20    21   ar
    35    20    32    1
    36    22    33    1
    37    22    34    1
    38    22    35    1
    39    23    37    1
    40    23    38    1
    41    23    39    1
    42    24    40    1
    43    24    41    1
    44    24    42    1
