@<TRIPOS>MOLECULE
IMPHY016572
 39 40 0 0 0
SMALL
GASTEIGER

@<TRIPOS>ATOM
      1 C           5.4641   -0.7673    0.0000 C.3     1  UNL1       -0.0253
      2 C           5.4641    0.2327    0.0000 C.3     1  UNL1       -0.0144
      3 C           6.3580    0.7674    0.0000 C.3     1  UNL1       -0.0371
      4 C           6.3580   -1.3020    0.0000 C.3     1  UNL1       -0.0471
      5 C           4.5981   -1.2673    0.0000 C.3     1  UNL1       -0.0431
      6 C           7.2641    0.2535    0.0000 C.3     1  UNL1       -0.0499
      7 C           7.2641   -0.7881    0.0000 C.3     1  UNL1       -0.0523
      8 C           5.4641   -1.7673    0.0000 C.3     1  UNL1       -0.0590
      9 C           4.5981    0.7327    0.0000 C.2     1  UNL1       -0.0767
     10 C           3.7320   -0.7673    0.0000 C.3     1  UNL1       -0.0272
     11 C           3.7320    0.2327    0.0000 C.2     1  UNL1       -0.0486
     12 C           6.3465    1.7673    0.0000 C.3     1  UNL1       -0.0619
     13 C           2.8660    0.7327    0.0000 C.2     1  UNL1       -0.0546
     14 C           2.0000    0.2327    0.0000 C.3     1  UNL1       -0.0400
     15 C           2.8660    1.7327    0.0000 C.2     1  UNL1       -0.0955
     16 H           5.4576    1.0827    0.0000 H       1  UNL1        0.0351
     17 H           6.8920    1.0825    0.0000 H       1  UNL1        0.0304
     18 H           5.9534   -1.7718    0.0000 H       1  UNL1        0.0271
     19 H           6.7517   -1.7810    0.0000 H       1  UNL1        0.0271
     20 H           4.1996   -1.7422    0.0000 H       1  UNL1        0.0274
     21 H           4.9966   -1.7422    0.0000 H       1  UNL1        0.0274
     22 H           7.8750    0.1474    0.0000 H       1  UNL1        0.0268
     23 H           7.4732    0.8372    0.0000 H       1  UNL1        0.0268
     24 H           7.4732   -1.3718    0.0000 H       1  UNL1        0.0266
     25 H           7.8750   -0.6820    0.0000 H       1  UNL1        0.0266
     26 H           4.8441   -1.7673    0.0000 H       1  UNL1        0.0235
     27 H           5.4641   -2.3873    0.0000 H       1  UNL1        0.0235
     28 H           6.0841   -1.7673    0.0000 H       1  UNL1        0.0235
     29 H           4.5981    1.3527    0.0000 H       1  UNL1        0.0578
     30 H           3.1215   -0.6596    0.0000 H       1  UNL1        0.0313
     31 H           3.5200   -1.3499    0.0000 H       1  UNL1        0.0313
     32 H           6.9664    1.7745    0.0000 H       1  UNL1        0.0233
     33 H           6.3393    2.3873    0.0000 H       1  UNL1        0.0233
     34 H           5.7265    1.7601    0.0000 H       1  UNL1        0.0233
     35 H           1.6900    0.7696    0.0000 H       1  UNL1        0.0277
     36 H           1.4631   -0.0773    0.0000 H       1  UNL1        0.0277
     37 H           2.3100   -0.3042    0.0000 H       1  UNL1        0.0277
     38 H           3.4030    2.0427    0.0000 H       1  UNL1        0.0537
     39 H           2.3291    2.0427    0.0000 H       1  UNL1        0.0537
@<TRIPOS>BOND
     1     1     2    1
     2     1     4    1
     3     1     5    1
     4     1     8    1
     5     2     3    1
     6     2     9    1
     7     2    16    1
     8     3     6    1
     9     3    12    1
    10     3    17    1
    11     4     7    1
    12     4    18    1
    13     4    19    1
    14     5    10    1
    15     5    20    1
    16     5    21    1
    17     6     7    1
    18     6    22    1
    19     6    23    1
    20     7    24    1
    21     7    25    1
    22     8    26    1
    23     8    27    1
    24     8    28    1
    25     9    11    2
    26     9    29    1
    27    10    11    1
    28    10    30    1
    29    10    31    1
    30    11    13    1
    31    12    32    1
    32    12    33    1
    33    12    34    1
    34    13    14    1
    35    13    15    2
    36    14    35    1
    37    14    36    1
    38    14    37    1
    39    15    38    1
    40    15    39    1
