@<TRIPOS>MOLECULE
IMPHY009832
 34 33 0 0 0
SMALL
GASTEIGER

@<TRIPOS>ATOM
      1 O           4.5981   -0.7500    0.0000 O.3     1  UNL1       -0.4642
      2 O           5.4641   -2.2500    0.0000 O.2     1  UNL1       -0.2512
      3 C           5.4641    0.7500    0.0000 C.3     1  UNL1        0.0173
      4 C           4.5981    1.2500    0.0000 C.3     1  UNL1       -0.0249
      5 C           5.4641   -0.2500    0.0000 C.3     1  UNL1        0.0992
      6 C           6.3301    1.2500    0.0000 C.2     1  UNL1       -0.0731
      7 C           3.7320    0.7500    0.0000 C.2     1  UNL1       -0.0846
      8 C           7.1962    0.7500    0.0000 C.3     1  UNL1       -0.0437
      9 C           2.8660    1.2500    0.0000 C.2     1  UNL1       -0.0796
     10 C           6.3301    2.2500    0.0000 C.2     1  UNL1       -0.0993
     11 C           2.0000    0.7500    0.0000 C.3     1  UNL1       -0.0440
     12 C           2.8660    2.2500    0.0000 C.3     1  UNL1       -0.0440
     13 C           4.5981   -1.7500    0.0000 C.2     1  UNL1        0.3040
     14 C           3.7320   -2.2500    0.0000 C.3     1  UNL1        0.0332
     15 H           5.4641    1.3700    0.0000 H       1  UNL1        0.0381
     16 H           4.9966    1.7250    0.0000 H       1  UNL1        0.0314
     17 H           4.1996    1.7250    0.0000 H       1  UNL1        0.0314
     18 H           5.6762   -0.8326    0.0000 H       1  UNL1        0.0703
     19 H           6.0747   -0.1423    0.0000 H       1  UNL1        0.0703
     20 H           3.7320    0.1300    0.0000 H       1  UNL1        0.0572
     21 H           6.8862    0.2131    0.0000 H       1  UNL1        0.0274
     22 H           7.7331    0.4400    0.0000 H       1  UNL1        0.0274
     23 H           7.5062    1.2869    0.0000 H       1  UNL1        0.0274
     24 H           6.8671    2.5600    0.0000 H       1  UNL1        0.0534
     25 H           5.7932    2.5600    0.0000 H       1  UNL1        0.0534
     26 H           3.4860    2.2500    0.0000 H       1  UNL1        0.0274
     27 H           2.8660    2.8700    0.0000 H       1  UNL1        0.0274
     28 H           2.2460    2.2500    0.0000 H       1  UNL1        0.0274
     29 H           1.6900    1.2869    0.0000 H       1  UNL1        0.0274
     30 H           1.4631    0.4400    0.0000 H       1  UNL1        0.0274
     31 H           2.3100    0.2131    0.0000 H       1  UNL1        0.0274
     32 H           3.4220   -1.7131    0.0000 H       1  UNL1        0.0342
     33 H           3.1951   -2.5600    0.0000 H       1  UNL1        0.0342
     34 H           4.0420   -2.7869    0.0000 H       1  UNL1        0.0342
@<TRIPOS>BOND
     1     1     5    1
     2     1    13    1
     3     2    13    2
     4     3     4    1
     5     3     5    1
     6     3     6    1
     7     3    15    1
     8     4     7    1
     9     4    16    1
    10     4    17    1
    11     5    18    1
    12     5    19    1
    13     6     8    1
    14     6    10    2
    15     7     9    2
    16     7    20    1
    17     8    21    1
    18     8    22    1
    19     8    23    1
    20     9    11    1
    21     9    12    1
    22    10    24    1
    23    10    25    1
    24    11    29    1
    25    11    30    1
    26    11    31    1
    27    12    26    1
    28    12    27    1
    29    12    28    1
    30    13    14    1
    31    14    32    1
    32    14    33    1
    33    14    34    1
