@<TRIPOS>MOLECULE
IMPHY000893
 38 39 0 0 0
SMALL
GASTEIGER

@<TRIPOS>ATOM
      1 O           2.0000   -0.1751    0.0000 O.2     1  UNL1       -0.2927
      2 C           5.0000   -0.1751    0.0000 C.3     1  UNL1       -0.0046
      3 C           5.5878    0.6339    0.0000 C.3     1  UNL1       -0.0369
      4 C           5.5878   -0.9841    0.0000 C.3     1  UNL1       -0.0429
      5 C           4.5000   -1.0412    0.0000 C.3     1  UNL1       -0.0275
      6 C           6.5388    0.3249    0.0000 C.3     1  UNL1       -0.0196
      7 C           6.5388   -0.6751    0.0000 C.3     1  UNL1       -0.0457
      8 C           4.5000    0.6909    0.0000 C.2     1  UNL1       -0.0629
      9 C           3.5000   -1.0412    0.0000 C.3     1  UNL1        0.0132
     10 C           5.0000   -1.9072    0.0000 C.3     1  UNL1       -0.0612
     11 C           7.3479    0.9127    0.0000 C.2     1  UNL1       -0.0766
     12 C           3.5000    0.6909    0.0000 C.2     1  UNL1       -0.0197
     13 C           3.0000   -0.1751    0.0000 C.2     1  UNL1        0.1563
     14 C           5.0000    1.5569    0.0000 C.3     1  UNL1       -0.0429
     15 C           8.2614    0.5059    0.0000 C.3     1  UNL1       -0.0438
     16 C           7.2433    1.9072    0.0000 C.2     1  UNL1       -0.0994
     17 H           5.8400    1.2003    0.0000 H       1  UNL1        0.0279
     18 H           5.0508    0.9439    0.0000 H       1  UNL1        0.0279
     19 H           5.0508   -1.2942    0.0000 H       1  UNL1        0.0274
     20 H           5.8400   -1.5505    0.0000 H       1  UNL1        0.0274
     21 H           5.1200   -1.0412    0.0000 H       1  UNL1        0.0311
     22 H           6.4418    0.9372    0.0000 H       1  UNL1        0.0346
     23 H           6.6678   -1.2816    0.0000 H       1  UNL1        0.0271
     24 H           7.1554   -0.6103    0.0000 H       1  UNL1        0.0271
     25 H           2.9174   -1.2532    0.0000 H       1  UNL1        0.0348
     26 H           3.6077   -1.6517    0.0000 H       1  UNL1        0.0348
     27 H           4.4631   -2.2172    0.0000 H       1  UNL1        0.0233
     28 H           5.3100   -2.4441    0.0000 H       1  UNL1        0.0233
     29 H           5.5369   -1.5972    0.0000 H       1  UNL1        0.0233
     30 H           3.1900    1.2278    0.0000 H       1  UNL1        0.0652
     31 H           5.5369    1.2469    0.0000 H       1  UNL1        0.0275
     32 H           5.3100    2.0939    0.0000 H       1  UNL1        0.0275
     33 H           4.4631    1.8669    0.0000 H       1  UNL1        0.0275
     34 H           8.0092   -0.0605    0.0000 H       1  UNL1        0.0274
     35 H           8.8278    0.2537    0.0000 H       1  UNL1        0.0274
     36 H           8.5136    1.0723    0.0000 H       1  UNL1        0.0274
     37 H           7.7449    2.2716    0.0000 H       1  UNL1        0.0534
     38 H           6.6769    2.1594    0.0000 H       1  UNL1        0.0534
@<TRIPOS>BOND
     1     1    13    2
     2     2     3    1
     3     2     4    1
     4     2     5    1
     5     2     8    1
     6     3     6    1
     7     3    17    1
     8     3    18    1
     9     4     7    1
    10     4    19    1
    11     4    20    1
    12     5     9    1
    13     5    10    1
    14     5    21    1
    15     6     7    1
    16     6    11    1
    17     6    22    1
    18     7    23    1
    19     7    24    1
    20     8    12    2
    21     8    14    1
    22     9    13    1
    23     9    25    1
    24     9    26    1
    25    10    27    1
    26    10    28    1
    27    10    29    1
    28    11    15    1
    29    11    16    2
    30    12    13    1
    31    12    30    1
    32    14    31    1
    33    14    32    1
    34    14    33    1
    35    15    34    1
    36    15    35    1
    37    15    36    1
    38    16    37    1
    39    16    38    1
