@<TRIPOS>MOLECULE
IMPHY007468
 41 42 0 0 0
SMALL
GASTEIGER

@<TRIPOS>ATOM
      1 O           6.0812   -2.3047    0.0000 O.3     1  UNL1       -0.4567
      2 O           7.6648   -1.5000    0.0000 O.2     1  UNL1       -0.2505
      3 O           3.7450   -0.0603    0.0000 O.3     1  UNL1       -0.3872
      4 O           2.5369    2.5000    0.0000 O.3     1  UNL1       -0.3907
      5 C           5.1350   -1.0000    0.0000 C.3     1  UNL1        0.0128
      6 C           6.0812   -0.6953    0.0000 C.3     1  UNL1        0.0601
      7 C           5.1350   -2.0000    0.0000 C.3     1  UNL1        0.1251
      8 C           4.2690   -0.5000    0.0000 C.3     1  UNL1       -0.0420
      9 C           4.2690    0.5000    0.0000 C.3     1  UNL1       -0.0292
     10 C           6.6648   -1.5000    0.0000 C.2     1  UNL1        0.3109
     11 C           4.2690   -2.5000    0.0000 C.2     1  UNL1       -0.0423
     12 C           6.3919    0.2553    0.0000 C.3     1  UNL1       -0.0519
     13 C           3.4030   -2.0000    0.0000 C.2     1  UNL1       -0.0447
     14 C           3.4030    1.0000    0.0000 C.2     1  UNL1       -0.0483
     15 C           3.4030   -1.0000    0.0000 C.3     1  UNL1        0.0795
     16 C           2.5369   -0.5000    0.0000 C.3     1  UNL1       -0.0044
     17 C           2.5369    0.5000    0.0000 C.2     1  UNL1       -0.0799
     18 C           3.4030    2.0000    0.0000 C.3     1  UNL1        0.0653
     19 C           2.5369   -2.5000    0.0000 C.3     1  UNL1       -0.0412
     20 H           5.2250   -0.1548    0.0000 H       1  UNL1        0.0348
     21 H           5.6438   -0.2559    0.0000 H       1  UNL1        0.0415
     22 H           5.2250   -2.8452    0.0000 H       1  UNL1        0.0782
     23 H           3.6584   -0.3923    0.0000 H       1  UNL1        0.0272
     24 H           4.0569   -1.0826    0.0000 H       1  UNL1        0.0272
     25 H           4.8796    0.3923    0.0000 H       1  UNL1        0.0311
     26 H           4.4810    1.0826    0.0000 H       1  UNL1        0.0311
     27 H           4.2690   -3.1200    0.0000 H       1  UNL1        0.0609
     28 H           6.9812    0.0626    0.0000 H       1  UNL1        0.0238
     29 H           6.5845    0.8446    0.0000 H       1  UNL1        0.0238
     30 H           5.8026    0.4479    0.0000 H       1  UNL1        0.0238
     31 H           4.0135   -1.1077    0.0000 H       1  UNL1        0.0643
     32 H           1.9264   -0.3923    0.0000 H       1  UNL1        0.0336
     33 H           2.3249   -1.0826    0.0000 H       1  UNL1        0.0336
     34 H           2.0000    0.8100    0.0000 H       1  UNL1        0.0573
     35 H           4.0135    1.8923    0.0000 H       1  UNL1        0.0604
     36 H           3.6150    2.5826    0.0000 H       1  UNL1        0.0604
     37 H           2.2269   -1.9631    0.0000 H       1  UNL1        0.0275
     38 H           2.0000   -2.8100    0.0000 H       1  UNL1        0.0275
     39 H           2.8469   -3.0369    0.0000 H       1  UNL1        0.0275
     40 H           3.1624    0.1517    0.0000 H       1  UNL1        0.2102
     41 H           2.5369    3.1200    0.0000 H       1  UNL1        0.2098
@<TRIPOS>BOND
     1     1     7    1
     2     1    10    1
     3     2    10    2
     4    15     3    1
     5     3    40    1
     6     4    18    1
     7     4    41    1
     8     5     6    1
     9     5     7    1
    10     5     8    1
    11     5    20    1
    12     6    10    1
    13     6    12    1
    14     6    21    1
    15     7    11    1
    16     7    22    1
    17     8     9    1
    18     8    23    1
    19     8    24    1
    20     9    14    1
    21     9    25    1
    22     9    26    1
    23    11    13    2
    24    11    27    1
    25    12    28    1
    26    12    29    1
    27    12    30    1
    28    13    15    1
    29    13    19    1
    30    14    17    2
    31    14    18    1
    32    15    16    1
    33    15    31    1
    34    16    17    1
    35    16    32    1
    36    16    33    1
    37    17    34    1
    38    18    35    1
    39    18    36    1
    40    19    37    1
    41    19    38    1
    42    19    39    1
