@<TRIPOS>MOLECULE
IMPHY016217
 19 19 0 0 0
SMALL
GASTEIGER

@<TRIPOS>ATOM
      1 O           2.0000   -0.2500    0.0000 O.2     1  UNL1       -0.2956
      2 N           4.5981    1.2500    0.0000 N.pl3   1  UNL1       -0.3464
      3 C           4.5981    0.2500    0.0000 C.ar    1  UNL1        0.0372
      4 C           3.7320   -0.2500    0.0000 C.ar    1  UNL1        0.0350
      5 C           5.4641   -0.2500    0.0000 C.ar    1  UNL1       -0.0402
      6 C           3.7320   -1.2500    0.0000 C.ar    1  UNL1       -0.0498
      7 C           5.4641   -1.2500    0.0000 C.ar    1  UNL1       -0.0600
      8 C           4.5981   -1.7500    0.0000 C.ar    1  UNL1       -0.0610
      9 C           5.4641    1.7500    0.0000 C.3     1  UNL1       -0.0024
     10 C           2.8660    0.2500    0.0000 C.2     1  UNL1        0.1520
     11 H           6.0010    0.0600    0.0000 H       1  UNL1        0.0636
     12 H           4.0611    1.5600    0.0000 H       1  UNL1        0.1458
     13 H           3.1951   -1.5600    0.0000 H       1  UNL1        0.0625
     14 H           6.0010   -1.5600    0.0000 H       1  UNL1        0.0618
     15 H           4.5981   -2.3700    0.0000 H       1  UNL1        0.0618
     16 H           5.7741    1.2131    0.0000 H       1  UNL1        0.0425
     17 H           6.0010    2.0600    0.0000 H       1  UNL1        0.0425
     18 H           5.1541    2.2869    0.0000 H       1  UNL1        0.0425
     19 H           2.8660    0.8700    0.0000 H       1  UNL1        0.1082
@<TRIPOS>BOND
     1     1    10    2
     2     2     3    1
     3     2     9    1
     4     2    12    1
     5     3     4   ar
     6     3     5   ar
     7     4     6   ar
     8     4    10    1
     9     5     7   ar
    10     5    11    1
    11     6     8   ar
    12     6    13    1
    13     7     8   ar
    14     7    14    1
    15     8    15    1
    16     9    16    1
    17     9    17    1
    18     9    18    1
    19    10    19    1
