@<TRIPOS>MOLECULE
IMPHY002005
 24 25 0 0 0
SMALL
GASTEIGER

@<TRIPOS>ATOM
      1 O           2.0000   -1.0000    0.0000 O.2     1  UNL1       -0.2957
      2 C           4.5981   -0.5000    0.0000 C.ar    1  UNL1       -0.0077
      3 C           4.5981    0.5000    0.0000 C.ar    1  UNL1       -0.0172
      4 C           3.7320   -1.0000    0.0000 C.ar    1  UNL1        0.0219
      5 C           5.4641   -1.0000    0.0000 C.ar    1  UNL1       -0.0534
      6 C           3.7320    1.0000    0.0000 C.ar    1  UNL1       -0.0540
      7 C           5.4641    1.0000    0.0000 C.ar    1  UNL1       -0.0540
      8 C           3.7320   -2.0000    0.0000 C.ar    1  UNL1       -0.0510
      9 C           5.4641   -2.0000    0.0000 C.ar    1  UNL1       -0.0611
     10 C           4.5981   -2.5000    0.0000 C.ar    1  UNL1       -0.0611
     11 C           3.7320    2.0000    0.0000 C.ar    1  UNL1       -0.0612
     12 C           5.4641    2.0000    0.0000 C.ar    1  UNL1       -0.0612
     13 C           4.5981    2.5000    0.0000 C.ar    1  UNL1       -0.0617
     14 C           2.8660   -0.5000    0.0000 C.2     1  UNL1        0.1508
     15 H           6.0010   -0.6900    0.0000 H       1  UNL1        0.0624
     16 H           3.1951    0.6900    0.0000 H       1  UNL1        0.0624
     17 H           6.0010    0.6900    0.0000 H       1  UNL1        0.0624
     18 H           3.1951   -2.3100    0.0000 H       1  UNL1        0.0625
     19 H           6.0010   -2.3100    0.0000 H       1  UNL1        0.0618
     20 H           4.5981   -3.1200    0.0000 H       1  UNL1        0.0618
     21 H           3.1951    2.3100    0.0000 H       1  UNL1        0.0618
     22 H           6.0010    2.3100    0.0000 H       1  UNL1        0.0618
     23 H           4.5981    3.1200    0.0000 H       1  UNL1        0.0618
     24 H           2.8660    0.1200    0.0000 H       1  UNL1        0.1082
@<TRIPOS>BOND
     1     1    14    2
     2     2     3    1
     3     2     4   ar
     4     2     5   ar
     5     3     6   ar
     6     3     7   ar
     7     4     8   ar
     8     4    14    1
     9     5     9   ar
    10     5    15    1
    11     6    11   ar
    12     6    16    1
    13     7    12   ar
    14     7    17    1
    15     8    10   ar
    16     8    18    1
    17     9    10   ar
    18     9    19    1
    19    10    20    1
    20    11    13   ar
    21    11    21    1
    22    12    13   ar
    23    12    22    1
    24    13    23    1
    25    14    24    1
