@<TRIPOS>MOLECULE
IMPHY010789
 52 57 0 0 0
SMALL
GASTEIGER

@<TRIPOS>ATOM
      1 O          10.3243   -1.6793    0.0000 O.3     1  UNL1       -0.4751
      2 O           6.8671    1.3752    0.0000 O.2     1  UNL1       -0.4537
      3 O          10.9990    1.0791    0.0000 O.2     1  UNL1       -0.2911
      4 O          10.5186    2.0242    0.0000 O.3     1  UNL1       -0.2868
      5 O           6.8671    4.3752    0.0000 O.2     1  UNL1       -0.2867
      6 O          12.0909    1.3005    0.0000 O.3     1  UNL1       -0.2864
      7 O           3.4030    5.3752    0.0000 O.3     1  UNL1       -0.2257
      8 O           8.5808   -2.6592    0.0000 O.3     1  UNL1       -0.2832
      9 O          13.7881   -1.7193    0.0000 O.3     1  UNL1       -0.2865
     10 O           4.2690    2.8752    0.0000 O.3     1  UNL1       -0.2864
     11 O          10.2780   -5.6790    0.0000 O.3     1  UNL1       -0.2865
     12 O           2.5369   -0.1248    0.0000 O.3     1  UNL1       -0.2865
     13 C           9.4757   -0.1694    0.0000 C.3     1  UNL1        0.1105
     14 C           8.6155    0.3406    0.0000 C.3     1  UNL1        0.0606
     15 C           9.4641   -1.1693    0.0000 C.3     1  UNL1        0.1778
     16 C           8.5923   -1.6593    0.0000 C.3     1  UNL1        0.0657
     17 C           7.7437   -0.1493    0.0000 C.2     1  UNL1       -0.0296
     18 C           7.7322   -1.1493    0.0000 C.2     1  UNL1       -0.0443
     19 C           8.6270    1.3405    0.0000 C.ar    1  UNL1        0.0555
     20 C          10.3474    0.3206    0.0000 C.2     1  UNL1        0.1799
     21 C           7.7331    1.8752    0.0000 C.ar    1  UNL1        0.1476
     22 C           9.5331    1.8544    0.0000 C.ar    1  UNL1        0.1950
     23 C           6.8604   -1.6392    0.0000 C.3     1  UNL1        0.0261
     24 C           7.7331    2.8752    0.0000 C.ar    1  UNL1        0.0731
     25 C          11.2076   -0.1894    0.0000 C.ar    1  UNL1        0.0739
     26 C           9.5331    2.8960    0.0000 C.ar    1  UNL1        0.0420
     27 C           6.0010    2.8752    0.0000 C.ar    1  UNL1        0.0515
     28 C          10.3127   -2.6792    0.0000 C.ar    1  UNL1        0.1773
     29 C           8.6270    3.4099    0.0000 C.ar    1  UNL1        0.0095
     30 C           6.8671    3.3752    0.0000 C.ar    1  UNL1        0.1975
     31 C           6.0010    1.8752    0.0000 C.ar    1  UNL1        0.1473
     32 C           5.1350    3.3752    0.0000 C.3     1  UNL1        0.0352
     33 C           5.1350    4.3752    0.0000 C.3     1  UNL1        0.0353
     34 C          12.0793    0.3006    0.0000 C.ar    1  UNL1        0.2016
     35 C          11.1960   -1.1893    0.0000 C.ar    1  UNL1        0.0093
     36 C           4.2690    4.8752    0.0000 C.3     1  UNL1        0.1271
     37 C           5.1350    1.3752    0.0000 C.ar    1  UNL1        0.0734
     38 C           9.4410   -3.1692    0.0000 C.ar    1  UNL1        0.2325
     39 C          11.1729   -3.1892    0.0000 C.ar    1  UNL1        0.0435
     40 C          12.9395   -0.2094    0.0000 C.ar    1  UNL1        0.0841
     41 C          12.0562   -1.6993    0.0000 C.ar    1  UNL1        0.0423
     42 C           3.7690    4.0092    0.0000 C.3     1  UNL1        0.0329
     43 C           4.7690    5.7412    0.0000 C.3     1  UNL1        0.0329
     44 C          12.9280   -1.2094    0.0000 C.ar    1  UNL1        0.1989
     45 C           9.4294   -4.1691    0.0000 C.ar    1  UNL1        0.0872
     46 C          11.1613   -4.1891    0.0000 C.ar    1  UNL1        0.0454
     47 C           4.2690    1.8752    0.0000 C.ar    1  UNL1        0.2018
     48 C           5.1350    0.3752    0.0000 C.ar    1  UNL1        0.0095
     49 C          10.2896   -4.6791    0.0000 C.ar    1  UNL1        0.1991
     50 C           3.4030    1.3752    0.0000 C.ar    1  UNL1        0.0841
     51 C           4.2690   -0.1248    0.0000 C.ar    1  UNL1        0.0423
     52 C           3.4030    0.3752    0.0000 C.ar    1  UNL1        0.1989
@<TRIPOS>BOND
     1     1    15    1
     2     1    28    1
     3     2    21   ar
     4     2    31   ar
     5     3    20    2
     6     4    22    1
     7     5    30    2
     8     6    34    1
     9     7    36    1
    10     8    38    1
    11     9    44    1
    12    10    47    1
    13    11    49    1
    14    12    52    1
    15    13    14    1
    16    13    15    1
    17    13    20    1
    18    14    17    1
    19    14    19    1
    20    15    16    1
    21    16    18    1
    22    17    18    2
    23    18    23    1
    24    19    21   ar
    25    19    22   ar
    26    20    25    1
    27    21    24   ar
    28    22    26   ar
    29    24    29   ar
    30    24    30   ar
    31    25    34   ar
    32    25    35   ar
    33    26    29   ar
    34    27    30   ar
    35    27    31   ar
    36    27    32    1
    37    28    38   ar
    38    28    39   ar
    39    31    37    1
    40    32    33    1
    41    33    36    1
    42    34    40   ar
    43    35    41   ar
    44    36    42    1
    45    36    43    1
    46    37    47   ar
    47    37    48   ar
    48    38    45   ar
    49    39    46   ar
    50    40    44   ar
    51    41    44   ar
    52    45    49   ar
    53    46    49   ar
    54    47    50   ar
    55    48    51   ar
    56    50    52   ar
    57    51    52   ar
