@<TRIPOS>MOLECULE
IMPHY016190
 26 26 0 0 0
SMALL
GASTEIGER

@<TRIPOS>ATOM
      1 C           2.0000   -0.5000    0.0000 C.3     1  UNL1       -0.0286
      2 C           4.4142    0.5000    0.0000 C.3     1  UNL1       -0.0286
      3 C           2.0000    0.5000    0.0000 C.3     1  UNL1       -0.0308
      4 C           4.4142   -0.5000    0.0000 C.3     1  UNL1       -0.0308
      5 C           2.7071   -1.2071    0.0000 C.2     1  UNL1       -0.0762
      6 C           3.7071    1.2071    0.0000 C.2     1  UNL1       -0.0762
      7 C           2.7071    1.2071    0.0000 C.2     1  UNL1       -0.0847
      8 C           3.7071   -1.2071    0.0000 C.2     1  UNL1       -0.0847
      9 C           2.3244   -2.1310    0.0000 C.3     1  UNL1       -0.0438
     10 C           4.0898    2.1310    0.0000 C.3     1  UNL1       -0.0438
     11 H           1.4011   -0.3395    0.0000 H       1  UNL1        0.0313
     12 H           1.6900   -1.0369    0.0000 H       1  UNL1        0.0313
     13 H           5.0131    0.3395    0.0000 H       1  UNL1        0.0313
     14 H           4.7242    1.0369    0.0000 H       1  UNL1        0.0313
     15 H           1.6900    1.0369    0.0000 H       1  UNL1        0.0310
     16 H           1.4011    0.3395    0.0000 H       1  UNL1        0.0310
     17 H           4.7242   -1.0369    0.0000 H       1  UNL1        0.0310
     18 H           5.0131   -0.3395    0.0000 H       1  UNL1        0.0310
     19 H           2.4698    1.7799    0.0000 H       1  UNL1        0.0572
     20 H           3.9444   -1.7799    0.0000 H       1  UNL1        0.0572
     21 H           1.7516   -1.8937    0.0000 H       1  UNL1        0.0274
     22 H           2.0872   -2.7038    0.0000 H       1  UNL1        0.0274
     23 H           2.8972   -2.3683    0.0000 H       1  UNL1        0.0274
     24 H           4.6626    1.8937    0.0000 H       1  UNL1        0.0274
     25 H           4.3270    2.7038    0.0000 H       1  UNL1        0.0274
     26 H           3.5170    2.3683    0.0000 H       1  UNL1        0.0274
@<TRIPOS>BOND
     1     1     3    1
     2     1     5    1
     3     1    11    1
     4     1    12    1
     5     2     4    1
     6     2     6    1
     7     2    13    1
     8     2    14    1
     9     3     7    1
    10     3    15    1
    11     3    16    1
    12     4     8    1
    13     4    17    1
    14     4    18    1
    15     5     8    2
    16     5     9    1
    17     6     7    2
    18     6    10    1
    19     7    19    1
    20     8    20    1
    21     9    21    1
    22     9    22    1
    23     9    23    1
    24    10    24    1
    25    10    25    1
    26    10    26    1
