@<TRIPOS>MOLECULE
IMPHY013577
 42 43 0 0 0
SMALL
GASTEIGER

@<TRIPOS>ATOM
      1 O           2.6200   -2.1830    0.0000 O.3     1  UNL1       -0.3886
      2 C           3.9860    0.1830    0.0000 C.3     1  UNL1       -0.0286
      3 C           3.9860   -0.8170    0.0000 C.3     1  UNL1       -0.0056
      4 C           3.1200    0.6830    0.0000 C.3     1  UNL1       -0.0351
      5 C           3.1200   -1.3170    0.0000 C.3     1  UNL1        0.0667
      6 C           2.2540    0.1830    0.0000 C.3     1  UNL1       -0.0471
      7 C           2.2540   -0.8170    0.0000 C.3     1  UNL1       -0.0237
      8 C           4.8800    0.7177    0.0000 C.3     1  UNL1       -0.0286
      9 C           4.8800   -1.3516    0.0000 C.3     1  UNL1       -0.0288
     10 C           3.1200    1.6830    0.0000 C.3     1  UNL1       -0.0436
     11 C           3.6200   -2.1830    0.0000 C.3     1  UNL1       -0.0358
     12 C           5.7860    0.2038    0.0000 C.2     1  UNL1       -0.0762
     13 C           5.7860   -0.8378    0.0000 C.2     1  UNL1       -0.0847
     14 C           2.2540    2.1830    0.0000 C.3     1  UNL1       -0.0624
     15 C           3.9860    2.1830    0.0000 C.3     1  UNL1       -0.0624
     16 C           6.6501    0.7072    0.0000 C.3     1  UNL1       -0.0438
     17 H           4.5253   -0.1228    0.0000 H       1  UNL1        0.0310
     18 H           3.9812   -1.4370    0.0000 H       1  UNL1        0.0334
     19 H           3.6569    0.9930    0.0000 H       1  UNL1        0.0306
     20 H           2.0419    0.7656    0.0000 H       1  UNL1        0.0269
     21 H           1.6434    0.0754    0.0000 H       1  UNL1        0.0269
     22 H           1.6434   -0.7093    0.0000 H       1  UNL1        0.0293
     23 H           2.0419   -1.3996    0.0000 H       1  UNL1        0.0293
     24 H           5.2736    1.1967    0.0000 H       1  UNL1        0.0313
     25 H           4.4754    1.1875    0.0000 H       1  UNL1        0.0313
     26 H           4.4754   -1.8214    0.0000 H       1  UNL1        0.0311
     27 H           5.2736   -1.8307    0.0000 H       1  UNL1        0.0311
     28 H           2.5831    1.3730    0.0000 H       1  UNL1        0.0298
     29 H           3.0831   -2.4930    0.0000 H       1  UNL1        0.0257
     30 H           3.9300   -2.7200    0.0000 H       1  UNL1        0.0257
     31 H           4.1569   -1.8730    0.0000 H       1  UNL1        0.0257
     32 H           6.3218   -1.1499    0.0000 H       1  UNL1        0.0572
     33 H           2.0000   -2.1830    0.0000 H       1  UNL1        0.2102
     34 H           2.5640    2.7200    0.0000 H       1  UNL1        0.0232
     35 H           1.7170    2.4930    0.0000 H       1  UNL1        0.0232
     36 H           1.9440    1.6461    0.0000 H       1  UNL1        0.0232
     37 H           4.2960    1.6461    0.0000 H       1  UNL1        0.0232
     38 H           4.5230    2.4930    0.0000 H       1  UNL1        0.0232
     39 H           3.6760    2.7200    0.0000 H       1  UNL1        0.0232
     40 H           6.9622    0.1714    0.0000 H       1  UNL1        0.0274
     41 H           7.1859    1.0192    0.0000 H       1  UNL1        0.0274
     42 H           6.3381    1.2429    0.0000 H       1  UNL1        0.0274
@<TRIPOS>BOND
     1     5     1    1
     2     1    33    1
     3     2     3    1
     4     2     4    1
     5     2     8    1
     6     2    17    1
     7     3     5    1
     8     3     9    1
     9     3    18    1
    10     4     6    1
    11     4    10    1
    12     4    19    1
    13     5     7    1
    14     5    11    1
    15     6     7    1
    16     6    20    1
    17     6    21    1
    18     7    22    1
    19     7    23    1
    20     8    12    1
    21     8    24    1
    22     8    25    1
    23     9    13    1
    24     9    26    1
    25     9    27    1
    26    10    14    1
    27    10    15    1
    28    10    28    1
    29    11    29    1
    30    11    30    1
    31    11    31    1
    32    12    13    2
    33    12    16    1
    34    13    32    1
    35    14    34    1
    36    14    35    1
    37    14    36    1
    38    15    37    1
    39    15    38    1
    40    15    39    1
    41    16    40    1
    42    16    41    1
    43    16    42    1
