@<TRIPOS>MOLECULE
IMPHY010803
 35 40 0 0 0
SMALL
GASTEIGER

@<TRIPOS>ATOM
      1 O           6.8183   -2.9229    0.0000 O.2     1  UNL1       -0.4534
      2 O           9.9890   -0.1104    0.0000 O.2     1  UNL1       -0.2907
      3 O           7.6575    2.1989    0.0000 O.3     1  UNL1       -0.2868
      4 O          10.4197   -3.4807    0.0000 O.3     1  UNL1       -0.2865
      5 O           4.3574    0.9183    0.0000 O.3     1  UNL1       -0.2865
      6 O          10.1261    4.0528    0.0000 O.3     1  UNL1       -0.2866
      7 O           2.3649   -1.6338    0.0000 O.3     1  UNL1       -0.2866
      8 C           8.3906    0.4489    0.0000 C.3     1  UNL1        0.1094
      9 C           6.9896   -1.3078    0.0000 C.ar    1  UNL1        0.0375
     10 C           7.3906    0.4489    0.0000 C.ar    1  UNL1        0.0282
     11 C           7.8906   -1.7417    0.0000 C.ar    1  UNL1        0.0405
     12 C           6.7671   -0.3329    0.0000 C.ar    1  UNL1        0.0060
     13 C           8.7915   -1.3078    0.0000 C.ar    1  UNL1        0.0416
     14 C           9.0141   -0.3329    0.0000 C.2     1  UNL1        0.1810
     15 C           7.7967   -2.7791    0.0000 C.ar    1  UNL1        0.1486
     16 C           6.3426   -2.0558    0.0000 C.ar    1  UNL1        0.1452
     17 C           8.8244    1.3499    0.0000 C.ar    1  UNL1       -0.0108
     18 C           7.0250    1.4243    0.0000 C.ar    1  UNL1        0.1956
     19 C           5.7348   -0.1936    0.0000 C.ar    1  UNL1        0.0420
     20 C           9.6611   -1.8813    0.0000 C.ar    1  UNL1        0.0451
     21 C           8.6528   -3.3725    0.0000 C.ar    1  UNL1        0.0795
     22 C           5.3482   -1.9503    0.0000 C.ar    1  UNL1        0.0348
     23 C           9.5913   -2.9206    0.0000 C.ar    1  UNL1        0.1989
     24 C           5.9962    1.5875    0.0000 C.ar    1  UNL1        0.0837
     25 C           5.3468    0.7731    0.0000 C.ar    1  UNL1        0.1989
     26 C           8.2611    2.1761    0.0000 C.ar    1  UNL1       -0.0002
     27 C           9.8217    1.4246    0.0000 C.ar    1  UNL1       -0.0002
     28 C           4.7596   -2.7587    0.0000 C.ar    1  UNL1        0.0063
     29 C           4.9423   -1.0364    0.0000 C.ar    1  UNL1        0.0063
     30 C           8.6950    3.0771    0.0000 C.ar    1  UNL1        0.0417
     31 C          10.2555    2.3256    0.0000 C.ar    1  UNL1        0.0417
     32 C           9.6922    3.1518    0.0000 C.ar    1  UNL1        0.1957
     33 C           3.7652   -2.6532    0.0000 C.ar    1  UNL1        0.0421
     34 C           3.9479   -0.9309    0.0000 C.ar    1  UNL1        0.0421
     35 C           3.3593   -1.7393    0.0000 C.ar    1  UNL1        0.1957
@<TRIPOS>BOND
     1     1    15   ar
     2     1    16   ar
     3     2    14    2
     4     3    18    1
     5     4    23    1
     6     5    25    1
     7     6    32    1
     8     7    35    1
     9     8    10    1
    10     8    14    1
    11     8    17    1
    12     9    11   ar
    13     9    12    1
    14     9    16   ar
    15    10    12   ar
    16    10    18   ar
    17    11    13   ar
    18    11    15   ar
    19    12    19   ar
    20    13    14    1
    21    13    20   ar
    22    15    21   ar
    23    16    22    1
    24    17    26   ar
    25    17    27   ar
    26    18    24   ar
    27    19    25   ar
    28    20    23   ar
    29    21    23   ar
    30    22    28   ar
    31    22    29   ar
    32    24    25   ar
    33    26    30   ar
    34    27    31   ar
    35    28    33   ar
    36    29    34   ar
    37    30    32   ar
    38    31    32   ar
    39    33    35   ar
    40    34    35   ar
