@<TRIPOS>MOLECULE
IMPHY008990
 40 41 0 0 0
SMALL
GASTEIGER

@<TRIPOS>ATOM
      1 O           8.4530    1.2552    0.0000 O.2     1  UNL1       -0.2915
      2 O           2.8660    0.5000    0.0000 O.3     1  UNL1       -0.3826
      3 C           8.7260   -0.5000    0.0000 C.3     1  UNL1        0.0320
      4 C           8.1424   -1.3047    0.0000 C.3     1  UNL1       -0.0148
      5 C           7.1962   -1.0000    0.0000 C.ar    1  UNL1       -0.0354
      6 C           7.1962    0.0000    0.0000 C.ar    1  UNL1        0.0243
      7 C           8.1424    0.3047    0.0000 C.2     1  UNL1        0.1696
      8 C           6.3301    0.5000    0.0000 C.ar    1  UNL1       -0.0362
      9 C           9.5350   -1.0878    0.0000 C.3     1  UNL1       -0.0524
     10 C           9.5350    0.0878    0.0000 C.3     1  UNL1       -0.0524
     11 C           5.4641    0.0000    0.0000 C.ar    1  UNL1       -0.0387
     12 C           6.3301   -1.5000    0.0000 C.ar    1  UNL1       -0.0547
     13 C           5.4641   -1.0000    0.0000 C.ar    1  UNL1       -0.0467
     14 C           4.5981    0.5000    0.0000 C.3     1  UNL1       -0.0036
     15 C           6.3301    1.5000    0.0000 C.3     1  UNL1       -0.0388
     16 C           4.5981   -1.5000    0.0000 C.3     1  UNL1       -0.0394
     17 C           3.7320    0.0000    0.0000 C.3     1  UNL1        0.0513
     18 C           2.0000    0.0000    0.0000 C.3     1  UNL1        0.0365
     19 H           7.8913   -1.8716    0.0000 H       1  UNL1        0.0323
     20 H           8.6798   -1.6140    0.0000 H       1  UNL1        0.0323
     21 H           9.1706   -1.5894    0.0000 H       1  UNL1        0.0239
     22 H          10.0366   -1.4522    0.0000 H       1  UNL1        0.0239
     23 H           9.8994   -0.5862    0.0000 H       1  UNL1        0.0239
     24 H           9.8994   -0.4138    0.0000 H       1  UNL1        0.0239
     25 H          10.0366    0.4522    0.0000 H       1  UNL1        0.0239
     26 H           9.1706    0.5894    0.0000 H       1  UNL1        0.0239
     27 H           6.3301   -2.1200    0.0000 H       1  UNL1        0.0623
     28 H           4.9966    0.9749    0.0000 H       1  UNL1        0.0336
     29 H           4.1996    0.9749    0.0000 H       1  UNL1        0.0336
     30 H           6.9501    1.5000    0.0000 H       1  UNL1        0.0278
     31 H           6.3301    2.1200    0.0000 H       1  UNL1        0.0278
     32 H           5.7101    1.5000    0.0000 H       1  UNL1        0.0278
     33 H           4.2881   -0.9631    0.0000 H       1  UNL1        0.0278
     34 H           4.0611   -1.8100    0.0000 H       1  UNL1        0.0278
     35 H           4.9081   -2.0369    0.0000 H       1  UNL1        0.0278
     36 H           3.3335   -0.4749    0.0000 H       1  UNL1        0.0563
     37 H           4.1306   -0.4749    0.0000 H       1  UNL1        0.0563
     38 H           1.6900    0.5369    0.0000 H       1  UNL1        0.0523
     39 H           1.4631   -0.3100    0.0000 H       1  UNL1        0.0523
     40 H           2.3100   -0.5369    0.0000 H       1  UNL1        0.0523
@<TRIPOS>BOND
     1     1     7    2
     2     2    17    1
     3     2    18    1
     4     3     4    1
     5     3     7    1
     6     3     9    1
     7     3    10    1
     8     4     5    1
     9     4    19    1
    10     4    20    1
    11     5     6   ar
    12     5    12   ar
    13     6     7    1
    14     6     8   ar
    15     8    11   ar
    16     8    15    1
    17     9    21    1
    18     9    22    1
    19     9    23    1
    20    10    24    1
    21    10    25    1
    22    10    26    1
    23    11    13   ar
    24    11    14    1
    25    12    13   ar
    26    12    27    1
    27    13    16    1
    28    14    17    1
    29    14    28    1
    30    14    29    1
    31    15    30    1
    32    15    31    1
    33    15    32    1
    34    16    33    1
    35    16    34    1
    36    16    35    1
    37    17    36    1
    38    17    37    1
    39    18    38    1
    40    18    39    1
    41    18    40    1
