@<TRIPOS>MOLECULE
IMPHY001066
 57 59 0 0 0
SMALL
GASTEIGER

@<TRIPOS>ATOM
      1 O           8.5991    0.1550    0.0000 O.3     1  UNL1       -0.3313
      2 O           6.0010   -0.3450    0.0000 O.3     1  UNL1       -0.3461
      3 O           5.1350    1.1550    0.0000 O.3     1  UNL1       -0.3461
      4 O           6.8671   -1.8450    0.0000 O.3     1  UNL1       -0.3865
      5 O           8.5991   -2.8450    0.0000 O.3     1  UNL1       -0.3864
      6 O          10.3312    0.1550    0.0000 O.3     1  UNL1       -0.4600
      7 O          10.3312   -1.8450    0.0000 O.3     1  UNL1       -0.3829
      8 O           4.2690   -1.3450    0.0000 O.3     1  UNL1       -0.3841
      9 O           2.5369   -0.3450    0.0000 O.3     1  UNL1       -0.3864
     10 O           2.5369    1.6550    0.0000 O.3     1  UNL1       -0.3869
     11 O          12.9292    1.6550    0.0000 O.3     1  UNL1       -0.4644
     12 O          12.0632    0.1550    0.0000 O.2     1  UNL1       -0.2448
     13 C           7.7331   -0.3450    0.0000 C.3     1  UNL1        0.1144
     14 C           7.7331   -1.3450    0.0000 C.3     1  UNL1        0.1120
     15 C           8.5991   -1.8450    0.0000 C.3     1  UNL1        0.1152
     16 C           9.4651   -1.3450    0.0000 C.3     1  UNL1        0.1454
     17 C           9.4651   -0.3450    0.0000 C.3     1  UNL1        0.2308
     18 C           6.8671    0.1550    0.0000 C.3     1  UNL1        0.0796
     19 C           5.1350    0.1550    0.0000 C.3     1  UNL1        0.1876
     20 C           4.2690   -0.3450    0.0000 C.3     1  UNL1        0.1341
     21 C           3.4030    0.1550    0.0000 C.3     1  UNL1        0.1137
     22 C           3.4030    1.1550    0.0000 C.3     1  UNL1        0.1069
     23 C           4.2690    1.6550    0.0000 C.3     1  UNL1        0.0792
     24 C          10.3312    1.1550    0.0000 C.ar    1  UNL1        0.1380
     25 C          11.1972    1.6550    0.0000 C.ar    1  UNL1        0.1006
     26 C           9.4651    1.6550    0.0000 C.ar    1  UNL1       -0.0190
     27 C          11.1972    2.6550    0.0000 C.ar    1  UNL1       -0.0442
     28 C           9.4651    2.6550    0.0000 C.ar    1  UNL1       -0.0583
     29 C          10.3312    3.1550    0.0000 C.ar    1  UNL1       -0.0608
     30 C          12.0632    1.1550    0.0000 C.2     1  UNL1        0.3425
     31 C          13.7953    1.1550    0.0000 C.3     1  UNL1        0.0820
     32 H           7.7331    0.2750    0.0000 H       1  UNL1        0.0647
     33 H           7.7331   -1.9650    0.0000 H       1  UNL1        0.0647
     34 H           9.1360   -2.1550    0.0000 H       1  UNL1        0.0648
     35 H          10.0021   -1.0350    0.0000 H       1  UNL1        0.0683
     36 H           9.4651    0.2750    0.0000 H       1  UNL1        0.1084
     37 H           7.2656    0.6299    0.0000 H       1  UNL1        0.0587
     38 H           6.4685    0.6299    0.0000 H       1  UNL1        0.0587
     39 H           5.1350   -0.4650    0.0000 H       1  UNL1        0.0937
     40 H           3.7320   -0.6550    0.0000 H       1  UNL1        0.0671
     41 H           2.8660    0.4650    0.0000 H       1  UNL1        0.0647
     42 H           3.4030    1.7750    0.0000 H       1  UNL1        0.0643
     43 H           4.6675    2.1300    0.0000 H       1  UNL1        0.0587
     44 H           3.8705    2.1300    0.0000 H       1  UNL1        0.0587
     45 H           6.8671   -2.4650    0.0000 H       1  UNL1        0.2100
     46 H           8.0622   -3.1550    0.0000 H       1  UNL1        0.2100
     47 H          10.3312   -2.4650    0.0000 H       1  UNL1        0.2102
     48 H           3.7320   -1.6550    0.0000 H       1  UNL1        0.2101
     49 H           2.0000   -0.0350    0.0000 H       1  UNL1        0.2100
     50 H           2.5369    2.2750    0.0000 H       1  UNL1        0.2100
     51 H           8.9282    1.3450    0.0000 H       1  UNL1        0.0654
     52 H          11.7341    2.9650    0.0000 H       1  UNL1        0.0627
     53 H           8.9282    2.9650    0.0000 H       1  UNL1        0.0619
     54 H          10.3312    3.7750    0.0000 H       1  UNL1        0.0618
     55 H          13.4853    0.6181    0.0000 H       1  UNL1        0.0661
     56 H          14.3322    0.8450    0.0000 H       1  UNL1        0.0661
     57 H          14.1053    1.6919    0.0000 H       1  UNL1        0.0661
@<TRIPOS>BOND
     1     1    13    1
     2     1    17    1
     3     2    18    1
     4     2    19    1
     5     3    19    1
     6     3    23    1
     7     4    14    1
     8     4    45    1
     9     5    15    1
    10     5    46    1
    11     6    17    1
    12     6    24    1
    13     7    16    1
    14     7    47    1
    15     8    20    1
    16     8    48    1
    17     9    21    1
    18     9    49    1
    19    10    22    1
    20    10    50    1
    21    11    30    1
    22    11    31    1
    23    12    30    2
    24    13    14    1
    25    13    18    1
    26    13    32    1
    27    14    15    1
    28    14    33    1
    29    15    16    1
    30    15    34    1
    31    16    17    1
    32    16    35    1
    33    17    36    1
    34    18    37    1
    35    18    38    1
    36    19    20    1
    37    19    39    1
    38    20    21    1
    39    20    40    1
    40    21    22    1
    41    21    41    1
    42    22    23    1
    43    22    42    1
    44    23    43    1
    45    23    44    1
    46    24    25   ar
    47    24    26   ar
    48    25    27   ar
    49    25    30    1
    50    26    28   ar
    51    26    51    1
    52    27    29   ar
    53    27    52    1
    54    28    29   ar
    55    28    53    1
    56    29    54    1
    57    31    55    1
    58    31    56    1
    59    31    57    1
