@<TRIPOS>MOLECULE
IMPHY014588
 99 105 0 0 0
SMALL
GASTEIGER

@<TRIPOS>ATOM
      1 O           3.2704   -2.0858    0.0000 O.3     1  UNL1       -0.3633
      2 O           6.0538    1.7374    0.0000 O.3     1  UNL1       -0.3403
      3 O           2.5357   -1.3077    0.0000 O.3     1  UNL1       -0.3911
      4 O           7.0442   -2.8996    0.0000 O.3     1  UNL1       -0.4531
      5 O           6.1340   -0.0618    0.0000 O.3     1  UNL1       -0.3873
      6 O           7.0120   -0.8082    0.0000 O.2     1  UNL1       -0.2931
      7 O           4.5357    2.7064    0.0000 O.3     1  UNL1       -0.4569
      8 O           6.1172    2.1689    0.0000 O.3     1  UNL1       -0.4551
      9 O           5.1877    3.2374    0.0000 O.3     1  UNL1       -0.4342
     10 O           7.0778   -5.5695    0.0000 O.2     1  UNL1       -0.4708
     11 O           7.8928   -1.3897    0.0000 O.2     1  UNL1       -0.2511
     12 O           2.8885    3.2417    0.0000 O.2     1  UNL1       -0.2512
     13 O           7.4441    1.0556    0.0000 O.2     1  UNL1       -0.2512
     14 O           6.9198    3.2374    0.0000 O.2     1  UNL1       -0.2505
     15 C           4.2974   -2.4169    0.0000 C.3     1  UNL1        0.1140
     16 C           4.3058   -1.3319    0.0000 C.3     1  UNL1        0.0362
     17 C           5.2370   -2.9594    0.0000 C.3     1  UNL1        0.0509
     18 C           3.4977   -3.1406    0.0000 C.3     1  UNL1        0.0903
     19 C           5.2038   -0.8041    0.0000 C.3     1  UNL1        0.0422
     20 C           5.1877    0.2374    0.0000 C.3     1  UNL1        0.0377
     21 C           5.0100   -4.0138    0.0000 C.3     1  UNL1        0.0015
     22 C           4.3217    0.7374    0.0000 C.3     1  UNL1       -0.0131
     23 C           3.4037   -0.8111    0.0000 C.3     1  UNL1        0.0643
     24 C           3.9373   -4.1256    0.0000 C.3     1  UNL1       -0.0162
     25 C           6.1725   -2.4096    0.0000 C.3     1  UNL1        0.1693
     26 C           3.4117    0.2305    0.0000 C.3     1  UNL1       -0.0219
     27 C           4.3217    1.7374    0.0000 C.3     1  UNL1        0.0744
     28 C           6.1557   -1.3248    0.0000 C.2     1  UNL1        0.1787
     29 C           5.3908    0.6073    0.0000 C.3     1  UNL1        0.1042
     30 C           3.3223   -1.5131    0.0000 C.3     1  UNL1       -0.0538
     31 C           6.1031   -3.4594    0.0000 C.3     1  UNL1       -0.0524
     32 C           6.0538    0.7374    0.0000 C.3     1  UNL1        0.0607
     33 C           4.7436    1.7283    0.0000 C.3     1  UNL1        0.1535
     34 C           5.4745    1.4029    0.0000 C.3     1  UNL1        0.1666
     35 C           5.1877    2.2374    0.0000 C.3     1  UNL1        0.2139
     36 C           5.6779   -4.7581    0.0000 C.ar    1  UNL1       -0.0058
     37 C           3.4557    2.2374    0.0000 C.3     1  UNL1       -0.0500
     38 C           5.4683   -5.7359    0.0000 C.ar    1  UNL1       -0.0205
     39 C           6.6726   -4.6553    0.0000 C.ar    1  UNL1        0.0951
     40 C           7.9044   -2.3896    0.0000 C.2     1  UNL1        0.3046
     41 C           6.3334   -6.2374    0.0000 C.ar    1  UNL1        0.0919
     42 C           3.8666    3.4496    0.0000 C.2     1  UNL1        0.3043
     43 C           7.1020    1.9953    0.0000 C.2     1  UNL1        0.3044
     44 C           6.0538    3.7374    0.0000 C.2     1  UNL1        0.3121
     45 C           8.7761   -2.8796    0.0000 C.3     1  UNL1        0.0333
     46 C           6.0538    4.7374    0.0000 C.3     1  UNL1        0.0535
     47 C           4.1756    4.4006    0.0000 C.3     1  UNL1        0.0332
     48 C           7.7448    2.7613    0.0000 C.3     1  UNL1        0.0332
     49 C           6.9198    5.2374    0.0000 C.3     1  UNL1       -0.0432
     50 C           5.1877    5.2374    0.0000 C.3     1  UNL1       -0.0523
     51 C           6.9198    6.2374    0.0000 C.3     1  UNL1       -0.0645
     52 H           2.6898   -3.4048    0.0000 H       1  UNL1        0.0625
     53 H           5.9316   -0.3650    0.0000 H       1  UNL1        0.0393
     54 H           4.7871   -4.5923    0.0000 H       1  UNL1        0.0358
     55 H           3.5856    1.1624    0.0000 H       1  UNL1        0.0317
     56 H           2.8686   -0.4980    0.0000 H       1  UNL1        0.0600
     57 H           3.3477   -4.3174    0.0000 H       1  UNL1        0.0297
     58 H           4.0660   -4.7321    0.0000 H       1  UNL1        0.0297
     59 H           6.7052   -2.0924    0.0000 H       1  UNL1        0.0821
     60 H           3.2072    0.8158    0.0000 H       1  UNL1        0.0293
     61 H           2.8001    0.1291    0.0000 H       1  UNL1        0.0293
     62 H           5.9696    0.8295    0.0000 H       1  UNL1        0.0638
     63 H           3.2100   -0.9034    0.0000 H       1  UNL1        0.0237
     64 H           2.7126   -1.6254    0.0000 H       1  UNL1        0.0237
     65 H           3.4347   -2.1228    0.0000 H       1  UNL1        0.0237
     66 H           5.7931   -3.9963    0.0000 H       1  UNL1        0.0237
     67 H           6.6400   -3.7694    0.0000 H       1  UNL1        0.0237
     68 H           6.4131   -2.9224    0.0000 H       1  UNL1        0.0237
     69 H           6.2658    0.1548    0.0000 H       1  UNL1        0.0568
     70 H           6.6644    0.8450    0.0000 H       1  UNL1        0.0568
     71 H           5.2255    2.1185    0.0000 H       1  UNL1        0.0780
     72 H           5.3350    2.0070    0.0000 H       1  UNL1        0.0798
     73 H           4.6508    2.5474    0.0000 H       1  UNL1        0.1064
     74 H           3.7657    2.7743    0.0000 H       1  UNL1        0.0238
     75 H           2.9188    2.5474    0.0000 H       1  UNL1        0.0238
     76 H           3.1457    1.7004    0.0000 H       1  UNL1        0.0238
     77 H           2.0000   -0.9957    0.0000 H       1  UNL1        0.2098
     78 H           6.0051   -0.6683    0.0000 H       1  UNL1        0.2100
     79 H           4.9014   -5.9871    0.0000 H       1  UNL1        0.0652
     80 H           6.9835   -4.1189    0.0000 H       1  UNL1        0.1032
     81 H           6.3972   -6.8541    0.0000 H       1  UNL1        0.1029
     82 H           8.4724   -3.4200    0.0000 H       1  UNL1        0.0342
     83 H           9.3166   -3.1833    0.0000 H       1  UNL1        0.0342
     84 H           9.0799   -2.3391    0.0000 H       1  UNL1        0.0342
     85 H           6.0538    5.3574    0.0000 H       1  UNL1        0.0410
     86 H           4.7652    4.2091    0.0000 H       1  UNL1        0.0342
     87 H           4.3672    4.9903    0.0000 H       1  UNL1        0.0342
     88 H           3.5859    4.5922    0.0000 H       1  UNL1        0.0342
     89 H           8.2198    2.3628    0.0000 H       1  UNL1        0.0342
     90 H           8.1434    3.2363    0.0000 H       1  UNL1        0.0342
     91 H           7.2699    3.1599    0.0000 H       1  UNL1        0.0342
     92 H           7.1318    4.6548    0.0000 H       1  UNL1        0.0270
     93 H           7.5304    5.3450    0.0000 H       1  UNL1        0.0270
     94 H           5.4977    5.7743    0.0000 H       1  UNL1        0.0238
     95 H           4.6508    5.5474    0.0000 H       1  UNL1        0.0238
     96 H           4.8777    4.7004    0.0000 H       1  UNL1        0.0238
     97 H           7.5398    6.2374    0.0000 H       1  UNL1        0.0230
     98 H           6.9198    6.8574    0.0000 H       1  UNL1        0.0230
     99 H           6.2998    6.2374    0.0000 H       1  UNL1        0.0230
@<TRIPOS>BOND
     1    15     1    1
     2     1    18    1
     3     2    32    1
     4     2    35    1
     5    23     3    1
     6     3    77    1
     7    25     4    1
     8     4    40    1
     9    29     5    1
    10     5    78    1
    11     6    28    2
    12    33     7    1
    13     7    42    1
    14    34     8    1
    15     8    43    1
    16     9    35    1
    17     9    44    1
    18    10    39   ar
    19    10    41   ar
    20    11    40    2
    21    12    42    2
    22    13    43    2
    23    14    44    2
    24    15    16    1
    25    15    17    1
    26    15    18    1
    27    16    19    1
    28    16    23    1
    29    16    30    1
    30    17    21    1
    31    17    25    1
    32    17    31    1
    33    18    24    1
    34    18    52    1
    35    19    20    1
    36    19    28    1
    37    19    53    1
    38    20    22    1
    39    20    29    1
    40    20    32    1
    41    21    24    1
    42    21    36    1
    43    21    54    1
    44    22    26    1
    45    22    27    1
    46    22    55    1
    47    23    26    1
    48    23    56    1
    49    24    57    1
    50    24    58    1
    51    25    28    1
    52    25    59    1
    53    26    60    1
    54    26    61    1
    55    27    33    1
    56    27    35    1
    57    27    37    1
    58    29    34    1
    59    29    62    1
    60    30    63    1
    61    30    64    1
    62    30    65    1
    63    31    66    1
    64    31    67    1
    65    31    68    1
    66    32    69    1
    67    32    70    1
    68    33    34    1
    69    33    71    1
    70    34    72    1
    71    35    73    1
    72    36    38   ar
    73    36    39   ar
    74    37    74    1
    75    37    75    1
    76    37    76    1
    77    38    41   ar
    78    38    79    1
    79    39    80    1
    80    40    45    1
    81    41    81    1
    82    42    47    1
    83    43    48    1
    84    44    46    1
    85    45    82    1
    86    45    83    1
    87    45    84    1
    88    46    49    1
    89    46    50    1
    90    46    85    1
    91    47    86    1
    92    47    87    1
    93    47    88    1
    94    48    89    1
    95    48    90    1
    96    48    91    1
    97    49    51    1
    98    49    92    1
    99    49    93    1
   100    50    94    1
   101    50    95    1
   102    50    96    1
   103    51    97    1
   104    51    98    1
   105    51    99    1
