@<TRIPOS>MOLECULE
IMPHY006454
 41 43 0 0 0
SMALL
GASTEIGER

@<TRIPOS>ATOM
      1 O           6.0812    0.4943    0.0000 O.2     1  UNL1       -0.4547
      2 O           9.6648   -0.4330    0.0000 O.3     1  UNL1       -0.5063
      3 O           9.6648    3.0311    0.0000 O.3     1  UNL1       -0.5066
      4 O           2.5369    0.2990    0.0000 O.3     1  UNL1       -0.5066
      5 C           7.6648    1.2990    0.0000 C.ar    1  UNL1        0.0277
      6 C           8.1648    0.4330    0.0000 C.ar    1  UNL1        0.0086
      7 C           6.6648    1.2990    0.0000 C.ar    1  UNL1        0.1367
      8 C           7.6648   -0.4330    0.0000 C.3     1  UNL1       -0.0051
      9 C           5.1350    1.7990    0.0000 C.ar    1  UNL1        0.0210
     10 C           6.0812    2.1038    0.0000 C.ar    1  UNL1       -0.0081
     11 C           5.1350    0.7990    0.0000 C.ar    1  UNL1        0.1391
     12 C           9.1648    0.4330    0.0000 C.ar    1  UNL1        0.1244
     13 C           8.1648    2.1651    0.0000 C.ar    1  UNL1       -0.0090
     14 C           8.1648   -1.2990    0.0000 C.2     1  UNL1       -0.0808
     15 C           9.1648    2.1651    0.0000 C.ar    1  UNL1        0.1210
     16 C           9.6648    1.2990    0.0000 C.ar    1  UNL1        0.0216
     17 C           4.2690    2.2990    0.0000 C.ar    1  UNL1       -0.0475
     18 C           4.2690    0.2990    0.0000 C.ar    1  UNL1        0.0227
     19 C           7.6648   -2.1651    0.0000 C.2     1  UNL1       -0.0793
     20 C           3.4030    0.7990    0.0000 C.ar    1  UNL1        0.1204
     21 C           3.4030    1.7990    0.0000 C.ar    1  UNL1       -0.0194
     22 C           8.1648   -3.0311    0.0000 C.3     1  UNL1       -0.0440
     23 C           6.6648   -2.1651    0.0000 C.3     1  UNL1       -0.0440
     24 H           7.1899   -0.0345    0.0000 H       1  UNL1        0.0357
     25 H           7.1899   -0.8315    0.0000 H       1  UNL1        0.0357
     26 H           6.2738    2.6931    0.0000 H       1  UNL1        0.0661
     27 H           7.8548    2.7020    0.0000 H       1  UNL1        0.0661
     28 H           8.7848   -1.2990    0.0000 H       1  UNL1        0.0575
     29 H          10.2848    1.2990    0.0000 H       1  UNL1        0.0691
     30 H           4.2690    2.9190    0.0000 H       1  UNL1        0.0626
     31 H           4.2690   -0.3210    0.0000 H       1  UNL1        0.0691
     32 H           2.8660    2.1090    0.0000 H       1  UNL1        0.0654
     33 H           6.6648   -1.5451    0.0000 H       1  UNL1        0.0274
     34 H           6.0448   -2.1651    0.0000 H       1  UNL1        0.0274
     35 H           6.6648   -2.7851    0.0000 H       1  UNL1        0.0274
     36 H           7.6279   -3.3411    0.0000 H       1  UNL1        0.0274
     37 H           8.4748   -3.5680    0.0000 H       1  UNL1        0.0274
     38 H           8.7018   -2.7211    0.0000 H       1  UNL1        0.0274
     39 H          10.2848   -0.4330    0.0000 H       1  UNL1        0.2921
     40 H          10.2848    3.0311    0.0000 H       1  UNL1        0.2921
     41 H           2.0000    0.6090    0.0000 H       1  UNL1        0.2921
@<TRIPOS>BOND
     1     1     7   ar
     2     1    11   ar
     3     2    12    1
     4     2    39    1
     5     3    15    1
     6     3    40    1
     7     4    20    1
     8     4    41    1
     9     5     6   ar
    10     5     7    1
    11     5    13   ar
    12     6     8    1
    13     6    12   ar
    14     7    10   ar
    15     8    14    1
    16     8    24    1
    17     8    25    1
    18     9    10   ar
    19     9    11   ar
    20     9    17   ar
    21    10    26    1
    22    11    18   ar
    23    12    16   ar
    24    13    15   ar
    25    13    27    1
    26    14    19    2
    27    14    28    1
    28    15    16   ar
    29    16    29    1
    30    17    21   ar
    31    17    30    1
    32    18    20   ar
    33    18    31    1
    34    19    22    1
    35    19    23    1
    36    20    21   ar
    37    21    32    1
    38    22    36    1
    39    22    37    1
    40    22    38    1
    41    23    33    1
    42    23    34    1
    43    23    35    1
