@<TRIPOS>MOLECULE
IMPHY008199
 58 60 0 0 0
SMALL
GASTEIGER

@<TRIPOS>ATOM
      1 O           7.2241    0.4653    0.0000 O.3     1  UNL1       -0.4804
      2 O           5.4641    3.5000    0.0000 O.3     1  UNL1       -0.4943
      3 O           3.7320    0.5000    0.0000 O.3     1  UNL1       -0.5058
      4 O           6.3301   -1.0000    0.0000 O.2     1  UNL1       -0.2870
      5 C           8.1301    0.9792    0.0000 C.3     1  UNL1        0.1266
      6 C           9.1301    0.9753    0.0000 C.3     1  UNL1       -0.0060
      7 C           8.1301    2.0208    0.0000 C.2     1  UNL1       -0.0405
      8 C           8.6268    0.1112    0.0000 C.3     1  UNL1       -0.0212
      9 C           9.6335    1.8394    0.0000 C.3     1  UNL1       -0.0306
     10 C           6.3301    1.0000    0.0000 C.ar    1  UNL1        0.1467
     11 C           6.3301    2.0000    0.0000 C.ar    1  UNL1        0.0591
     12 C           7.2241    2.5347    0.0000 C.2     1  UNL1       -0.0478
     13 C           5.4641    0.5000    0.0000 C.ar    1  UNL1        0.1054
     14 C           5.4641    2.5000    0.0000 C.ar    1  UNL1        0.1342
     15 C          10.6335    1.8356    0.0000 C.2     1  UNL1       -0.0851
     16 C           4.5981    1.0000    0.0000 C.ar    1  UNL1        0.1347
     17 C           4.5981    2.0000    0.0000 C.ar    1  UNL1        0.0231
     18 C          11.1368    2.6997    0.0000 C.2     1  UNL1       -0.0796
     19 C           5.4641   -0.5000    0.0000 C.2     1  UNL1        0.1931
     20 C          12.1368    2.6958    0.0000 C.3     1  UNL1       -0.0440
     21 C          10.6401    3.5676    0.0000 C.3     1  UNL1       -0.0440
     22 C           4.5981   -1.0000    0.0000 C.2     1  UNL1       -0.0135
     23 C           4.5981    4.0000    0.0000 C.3     1  UNL1        0.0788
     24 C           4.5981   -2.0000    0.0000 C.2     1  UNL1       -0.0510
     25 C           3.7320   -2.5000    0.0000 C.ar    1  UNL1       -0.0249
     26 C           2.8660   -2.0000    0.0000 C.ar    1  UNL1       -0.0546
     27 C           3.7320   -3.5000    0.0000 C.ar    1  UNL1       -0.0546
     28 C           2.0000   -2.5000    0.0000 C.ar    1  UNL1       -0.0612
     29 C           2.8660   -4.0000    0.0000 C.ar    1  UNL1       -0.0612
     30 C           2.0000   -3.5000    0.0000 C.ar    1  UNL1       -0.0617
     31 H           9.0201    0.3652    0.0000 H       1  UNL1        0.0310
     32 H           9.7119    0.7610    0.0000 H       1  UNL1        0.0310
     33 H           8.6659    2.3329    0.0000 H       1  UNL1        0.0611
     34 H           8.0887   -0.1967    0.0000 H       1  UNL1        0.0271
     35 H           8.9347   -0.4269    0.0000 H       1  UNL1        0.0271
     36 H           9.1649    0.4192    0.0000 H       1  UNL1        0.0271
     37 H           9.7435    2.4496    0.0000 H       1  UNL1        0.0309
     38 H           9.0517    2.0537    0.0000 H       1  UNL1        0.0309
     39 H           7.2169    3.1546    0.0000 H       1  UNL1        0.0624
     40 H          10.9414    1.2974    0.0000 H       1  UNL1        0.0571
     41 H           4.0611    2.3100    0.0000 H       1  UNL1        0.0691
     42 H          12.1344    2.0758    0.0000 H       1  UNL1        0.0274
     43 H          11.1783    3.8755    0.0000 H       1  UNL1        0.0274
     44 H          10.3322    4.1057    0.0000 H       1  UNL1        0.0274
     45 H          10.1020    3.2597    0.0000 H       1  UNL1        0.0274
     46 H          12.7568    2.6934    0.0000 H       1  UNL1        0.0274
     47 H          12.1392    3.3158    0.0000 H       1  UNL1        0.0274
     48 H           4.0611   -0.6900    0.0000 H       1  UNL1        0.0656
     49 H           3.1951    0.8100    0.0000 H       1  UNL1        0.2922
     50 H           4.9081    4.5369    0.0000 H       1  UNL1        0.0660
     51 H           4.0611    4.3100    0.0000 H       1  UNL1        0.0660
     52 H           4.2881    3.4631    0.0000 H       1  UNL1        0.0660
     53 H           5.1350   -2.3100    0.0000 H       1  UNL1        0.0625
     54 H           2.8660   -1.3800    0.0000 H       1  UNL1        0.0623
     55 H           4.2690   -3.8100    0.0000 H       1  UNL1        0.0623
     56 H           1.4631   -2.1900    0.0000 H       1  UNL1        0.0618
     57 H           2.8660   -4.6200    0.0000 H       1  UNL1        0.0618
     58 H           1.4631   -3.8100    0.0000 H       1  UNL1        0.0618
@<TRIPOS>BOND
     1     1     5    1
     2     1    10    1
     3     2    14    1
     4     2    23    1
     5     3    16    1
     6     3    49    1
     7     4    19    2
     8     5     6    1
     9     5     7    1
    10     5     8    1
    11     6     9    1
    12     6    31    1
    13     6    32    1
    14     7    12    2
    15     7    33    1
    16     8    34    1
    17     8    35    1
    18     8    36    1
    19     9    15    1
    20     9    37    1
    21     9    38    1
    22    10    11   ar
    23    10    13   ar
    24    11    12    1
    25    11    14   ar
    26    12    39    1
    27    13    16   ar
    28    13    19    1
    29    14    17   ar
    30    15    18    2
    31    15    40    1
    32    16    17   ar
    33    17    41    1
    34    18    20    1
    35    18    21    1
    36    19    22    1
    37    20    42    1
    38    20    46    1
    39    20    47    1
    40    21    43    1
    41    21    44    1
    42    21    45    1
    43    22    24    2
    44    22    48    1
    45    23    50    1
    46    23    51    1
    47    23    52    1
    48    24    25    1
    49    24    53    1
    50    25    26   ar
    51    25    27   ar
    52    26    28   ar
    53    26    54    1
    54    27    29   ar
    55    27    55    1
    56    28    30   ar
    57    28    56    1
    58    29    30   ar
    59    29    57    1
    60    30    58    1
