@<TRIPOS>MOLECULE
IMPHY001991
 64 68 0 0 0
SMALL
GASTEIGER

@<TRIPOS>ATOM
      1 O           9.7082   -1.7679    0.0000 O.3     1  UNL1       -0.3580
      2 O           9.0532    0.9137    0.0000 O.3     1  UNL1       -0.4549
      3 O           5.9670   -1.3316    0.0000 O.2     1  UNL1       -0.4709
      4 O           6.8671   -2.8559    0.0000 O.3     1  UNL1       -0.3095
      5 O           8.5136   -3.3720    0.0000 O.3     1  UNL1       -0.3921
      6 O           5.1350   -2.8559    0.0000 O.3     1  UNL1       -0.3404
      7 O          10.6942    0.3595    0.0000 O.2     1  UNL1       -0.2456
      8 O           6.8671   -4.8559    0.0000 O.3     1  UNL1       -0.3841
      9 O           5.1350   -5.8559    0.0000 O.3     1  UNL1       -0.3864
     10 O           3.4030   -4.8559    0.0000 O.3     1  UNL1       -0.3865
     11 O           2.5369   -3.3559    0.0000 O.3     1  UNL1       -0.3924
     12 O          12.6142    6.0440    0.0000 O.3     1  UNL1       -0.5068
     13 C           8.7145   -1.6516    0.0000 C.3     1  UNL1        0.1316
     14 C           9.3116   -0.8494    0.0000 C.3     1  UNL1        0.1284
     15 C           7.7671   -1.3316    0.0000 C.3     1  UNL1        0.0652
     16 C           7.7787   -0.3317    0.0000 C.3     1  UNL1        0.0312
     17 C           8.7333   -0.0337    0.0000 C.3     1  UNL1        0.1390
     18 C           8.1174   -2.4538    0.0000 C.3     1  UNL1        0.0763
     19 C           6.8671   -1.8559    0.0000 C.3     1  UNL1        0.2097
     20 C           6.8910    0.2133    0.0000 C.2     1  UNL1       -0.0423
     21 C           5.9790   -0.2900    0.0000 C.2     1  UNL1        0.0843
     22 C           6.0010   -3.3559    0.0000 C.3     1  UNL1        0.1918
     23 C          10.0337    1.1103    0.0000 C.2     1  UNL1        0.3323
     24 C           6.0010   -4.3559    0.0000 C.3     1  UNL1        0.1342
     25 C           5.1350   -4.8559    0.0000 C.3     1  UNL1        0.1141
     26 C           4.2690   -3.3559    0.0000 C.3     1  UNL1        0.1130
     27 C           4.2690   -4.3559    0.0000 C.3     1  UNL1        0.1119
     28 C          10.3537    2.0578    0.0000 C.2     1  UNL1        0.0231
     29 C           3.4030   -2.8559    0.0000 C.3     1  UNL1        0.0730
     30 C          11.3342    2.2543    0.0000 C.2     1  UNL1       -0.0478
     31 C          11.6542    3.2018    0.0000 C.ar    1  UNL1       -0.0246
     32 C          10.9937    3.9526    0.0000 C.ar    1  UNL1       -0.0511
     33 C          12.6347    3.3983    0.0000 C.ar    1  UNL1       -0.0511
     34 C          11.3137    4.9000    0.0000 C.ar    1  UNL1       -0.0196
     35 C          12.9547    4.3458    0.0000 C.ar    1  UNL1       -0.0196
     36 C          12.2942    5.0966    0.0000 C.ar    1  UNL1        0.1169
     37 H          10.0526   -0.4329    0.0000 H       1  UNL1        0.0663
     38 H           7.8527   -2.1773    0.0000 H       1  UNL1        0.0398
     39 H           7.8838    0.5118    0.0000 H       1  UNL1        0.0386
     40 H           9.3467    0.0562    0.0000 H       1  UNL1        0.0767
     41 H           7.6919   -2.0028    0.0000 H       1  UNL1        0.0587
     42 H           7.5995   -2.7945    0.0000 H       1  UNL1        0.0587
     43 H           7.4046   -2.1649    0.0000 H       1  UNL1        0.1060
     44 H           6.9053    0.8331    0.0000 H       1  UNL1        0.0606
     45 H           5.4470    0.0282    0.0000 H       1  UNL1        0.1021
     46 H           9.1294   -3.4439    0.0000 H       1  UNL1        0.2095
     47 H           6.0010   -2.7359    0.0000 H       1  UNL1        0.0939
     48 H           6.0010   -4.9759    0.0000 H       1  UNL1        0.0671
     49 H           4.5981   -5.1659    0.0000 H       1  UNL1        0.0648
     50 H           4.2690   -2.7359    0.0000 H       1  UNL1        0.0647
     51 H           4.2690   -4.9759    0.0000 H       1  UNL1        0.0647
     52 H           9.9442    2.5233    0.0000 H       1  UNL1        0.0689
     53 H           6.8671   -5.4759    0.0000 H       1  UNL1        0.2101
     54 H           3.8015   -2.3810    0.0000 H       1  UNL1        0.0584
     55 H           3.0044   -2.3810    0.0000 H       1  UNL1        0.0584
     56 H           4.5981   -6.1659    0.0000 H       1  UNL1        0.2100
     57 H           3.4030   -5.4759    0.0000 H       1  UNL1        0.2100
     58 H          11.7437    1.7888    0.0000 H       1  UNL1        0.0626
     59 H           2.0000   -3.0459    0.0000 H       1  UNL1        0.2095
     60 H          10.3858    3.8307    0.0000 H       1  UNL1        0.0625
     61 H          13.0442    2.9328    0.0000 H       1  UNL1        0.0625
     62 H          10.9042    5.3655    0.0000 H       1  UNL1        0.0654
     63 H          13.5626    4.4676    0.0000 H       1  UNL1        0.0654
     64 H          13.2221    6.1659    0.0000 H       1  UNL1        0.2921
@<TRIPOS>BOND
     1     1    13    1
     2     1    14    1
     3    17     2    1
     4     2    23    1
     5     3    19    1
     6     3    21    1
     7    19     4    1
     8    22     4    1
     9     5    18    1
    10     5    46    1
    11     6    22    1
    12     6    26    1
    13     7    23    2
    14    24     8    1
    15     8    53    1
    16    25     9    1
    17     9    56    1
    18    27    10    1
    19    10    57    1
    20    11    29    1
    21    11    59    1
    22    12    36    1
    23    12    64    1
    24    13    14    1
    25    13    15    1
    26    13    18    1
    27    14    17    1
    28    14    37    1
    29    15    16    1
    30    15    19    1
    31    15    38    1
    32    16    17    1
    33    16    20    1
    34    16    39    1
    35    17    40    1
    36    18    41    1
    37    18    42    1
    38    19    43    1
    39    20    21    2
    40    20    44    1
    41    21    45    1
    42    22    24    1
    43    22    47    1
    44    23    28    1
    45    24    25    1
    46    24    48    1
    47    25    27    1
    48    25    49    1
    49    26    27    1
    50    26    29    1
    51    26    50    1
    52    27    51    1
    53    28    30    2
    54    28    52    1
    55    29    54    1
    56    29    55    1
    57    30    31    1
    58    30    58    1
    59    31    32   ar
    60    31    33   ar
    61    32    34   ar
    62    32    60    1
    63    33    35   ar
    64    33    61    1
    65    34    36   ar
    66    34    62    1
    67    35    36   ar
    68    35    63    1
