@<TRIPOS>MOLECULE
IMPHY001646
 148 157 0 0 0
SMALL
GASTEIGER

@<TRIPOS>ATOM
      1 O          14.3523    5.5403    0.0000 O.3     1  UNL1       -0.3553
      2 O          12.9292   -2.7038    0.0000 O.3     1  UNL1       -0.3451
      3 O          11.1972   -2.7038    0.0000 O.3     1  UNL1       -0.3405
      4 O          12.9292   -4.7038    0.0000 O.3     1  UNL1       -0.3841
      5 O          11.1972   -5.7038    0.0000 O.3     1  UNL1       -0.3401
      6 O           9.4651   -4.7038    0.0000 O.3     1  UNL1       -0.3401
      7 O           9.4651   -1.7038    0.0000 O.3     1  UNL1       -0.3924
      8 O          12.9292   -5.7038    0.0000 O.3     1  UNL1       -0.3461
      9 O           8.5991   -3.2038    0.0000 O.3     1  UNL1       -0.3431
     10 O          11.1972   -7.7038    0.0000 O.3     1  UNL1       -0.3841
     11 O           7.7331   -5.7038    0.0000 O.3     1  UNL1       -0.3841
     12 O          12.9292   -8.7038    0.0000 O.3     1  UNL1       -0.3864
     13 O           6.0010   -4.7038    0.0000 O.3     1  UNL1       -0.3864
     14 O           6.0010   -2.7038    0.0000 O.3     1  UNL1       -0.3402
     15 O          14.6613   -7.7038    0.0000 O.3     1  UNL1       -0.3869
     16 O           5.1350   -4.2038    0.0000 O.3     1  UNL1       -0.3461
     17 O           4.2690   -1.7038    0.0000 O.3     1  UNL1       -0.3841
     18 O           2.5369   -2.7038    0.0000 O.3     1  UNL1       -0.3864
     19 O           2.5369   -4.7038    0.0000 O.3     1  UNL1       -0.3869
     20 N          14.3019    6.6213    0.0000 N.3     1  UNL1       -0.2885
     21 C          12.9585    3.4931    0.0000 C.3     1  UNL1       -0.0233
     22 C          13.8264    2.9965    0.0000 C.3     1  UNL1       -0.0296
     23 C          13.1640    4.4657    0.0000 C.3     1  UNL1       -0.0025
     24 C          13.8303    1.9965    0.0000 C.3     1  UNL1       -0.0306
     25 C          14.1523    4.5726    0.0000 C.3     1  UNL1        0.0649
     26 C          12.9662    1.4931    0.0000 C.3     1  UNL1       -0.0285
     27 C          14.5609    3.6664    0.0000 C.3     1  UNL1       -0.0226
     28 C          12.7617    5.3683    0.0000 C.3     1  UNL1        0.0046
     29 C          12.0944    2.9898    0.0000 C.3     1  UNL1       -0.0467
     30 C          12.0983    1.9898    0.0000 C.3     1  UNL1       -0.0486
     31 C          13.4946    6.0311    0.0000 C.3     1  UNL1        0.1239
     32 C          12.9542    0.4516    0.0000 C.3     1  UNL1       -0.0078
     33 C          12.0906    3.9898    0.0000 C.3     1  UNL1       -0.0590
     34 C          14.7422    1.4931    0.0000 C.3     1  UNL1       -0.0311
     35 C          13.8542   -0.0727    0.0000 C.2     1  UNL1       -0.0648
     36 C          12.5799    6.4351    0.0000 C.3     1  UNL1       -0.0095
     37 C          12.0043   -0.0727    0.0000 C.3     1  UNL1       -0.0413
     38 C          11.7833    5.5750    0.0000 C.3     1  UNL1       -0.0582
     39 C          14.7543    0.4516    0.0000 C.2     1  UNL1       -0.0839
     40 C          12.0901    0.9549    0.0000 C.3     1  UNL1       -0.0556
     41 C          13.8668   -1.1576    0.0000 C.3     1  UNL1       -0.0047
     42 C          11.9917   -1.1576    0.0000 C.3     1  UNL1       -0.0254
     43 C          12.4724    7.4293    0.0000 C.3     1  UNL1       -0.0454
     44 C          14.1944    7.6155    0.0000 C.3     1  UNL1        0.0010
     45 C          12.9292   -1.7038    0.0000 C.3     1  UNL1        0.0655
     46 C          13.2796    8.0195    0.0000 C.3     1  UNL1       -0.0311
     47 C          13.1721    9.0138    0.0000 C.3     1  UNL1       -0.0613
     48 C          12.0632   -3.2038    0.0000 C.3     1  UNL1        0.1882
     49 C          12.0632   -4.2038    0.0000 C.3     1  UNL1        0.1345
     50 C          11.1972   -4.7038    0.0000 C.3     1  UNL1        0.1209
     51 C          10.3312   -3.2038    0.0000 C.3     1  UNL1        0.1134
     52 C          10.3312   -4.2038    0.0000 C.3     1  UNL1        0.1188
     53 C           9.4651   -2.7038    0.0000 C.3     1  UNL1        0.0730
     54 C          12.0632   -6.2038    0.0000 C.3     1  UNL1        0.1880
     55 C           8.5991   -4.2038    0.0000 C.3     1  UNL1        0.1883
     56 C          12.0632   -7.2038    0.0000 C.3     1  UNL1        0.1341
     57 C           7.7331   -4.7038    0.0000 C.3     1  UNL1        0.1341
     58 C          12.9292   -7.7038    0.0000 C.3     1  UNL1        0.1137
     59 C           6.8671   -4.2038    0.0000 C.3     1  UNL1        0.1143
     60 C           7.7331   -2.7038    0.0000 C.3     1  UNL1        0.0877
     61 C          13.7953   -6.2038    0.0000 C.3     1  UNL1        0.0792
     62 C          13.7953   -7.2038    0.0000 C.3     1  UNL1        0.1069
     63 C           6.8671   -3.2038    0.0000 C.3     1  UNL1        0.1160
     64 C           7.7331   -1.7038    0.0000 C.3     1  UNL1       -0.0361
     65 C           5.1350   -3.2038    0.0000 C.3     1  UNL1        0.1880
     66 C           4.2690   -2.7038    0.0000 C.3     1  UNL1        0.1341
     67 C           3.4030   -3.2038    0.0000 C.3     1  UNL1        0.1137
     68 C           3.4030   -4.2038    0.0000 C.3     1  UNL1        0.1069
     69 C           4.2690   -4.7038    0.0000 C.3     1  UNL1        0.0792
     70 H          14.6047    2.6548    0.0000 H       1  UNL1        0.0310
     71 H          12.3187    4.3762    0.0000 H       1  UNL1        0.0335
     72 H          14.5615    2.4300    0.0000 H       1  UNL1        0.0310
     73 H          14.9972    4.6658    0.0000 H       1  UNL1        0.0600
     74 H          13.7007    1.0653    0.0000 H       1  UNL1        0.0312
     75 H          14.9283    3.1670    0.0000 H       1  UNL1        0.0293
     76 H          15.0962    3.9792    0.0000 H       1  UNL1        0.0293
     77 H          12.2273    4.7073    0.0000 H       1  UNL1        0.0343
     78 H          11.8801    3.5716    0.0000 H       1  UNL1        0.0271
     79 H          11.4842    2.8798    0.0000 H       1  UNL1        0.0271
     80 H          11.4873    2.0951    0.0000 H       1  UNL1        0.0268
     81 H          11.8885    1.4064    0.0000 H       1  UNL1        0.0268
     82 H          12.3985    4.5279    0.0000 H       1  UNL1        0.0235
     83 H          11.5524    4.2977    0.0000 H       1  UNL1        0.0235
     84 H          11.7826    3.4517    0.0000 H       1  UNL1        0.0235
     85 H          15.3543    1.3941    0.0000 H       1  UNL1        0.0310
     86 H          14.9445    2.0792    0.0000 H       1  UNL1        0.0310
     87 H          11.9613    6.4765    0.0000 H       1  UNL1        0.0306
     88 H          12.4317    5.8331    0.0000 H       1  UNL1        0.0306
     89 H          11.8020    0.5134    0.0000 H       1  UNL1        0.0274
     90 H          11.3922   -0.1717    0.0000 H       1  UNL1        0.0274
     91 H          11.9114    6.1816    0.0000 H       1  UNL1        0.0234
     92 H          11.1766    5.7032    0.0000 H       1  UNL1        0.0234
     93 H          11.6551    4.9684    0.0000 H       1  UNL1        0.0234
     94 H          15.2936    0.1457    0.0000 H       1  UNL1        0.0572
     95 H          14.8690    6.3708    0.0000 H       1  UNL1        0.1246
     96 H          12.4021    1.4906    0.0000 H       1  UNL1        0.0238
     97 H          11.5543    1.2670    0.0000 H       1  UNL1        0.0238
     98 H          11.7780    0.4192    0.0000 H       1  UNL1        0.0238
     99 H          14.0826   -1.7389    0.0000 H       1  UNL1        0.0335
    100 H          14.4764   -1.0445    0.0000 H       1  UNL1        0.0335
    101 H          11.3821   -1.0445    0.0000 H       1  UNL1        0.0290
    102 H          11.7759   -1.7389    0.0000 H       1  UNL1        0.0290
    103 H          12.1989    7.9858    0.0000 H       1  UNL1        0.0270
    104 H          11.8769    7.2567    0.0000 H       1  UNL1        0.0270
    105 H          14.8130    7.5741    0.0000 H       1  UNL1        0.0427
    106 H          14.3426    8.2176    0.0000 H       1  UNL1        0.0427
    107 H          12.1923   -2.1273    0.0000 H       1  UNL1        0.0600
    108 H          13.9658    8.5212    0.0000 H       1  UNL1        0.0310
    109 H          13.7885    9.0804    0.0000 H       1  UNL1        0.0233
    110 H          13.1055    9.6302    0.0000 H       1  UNL1        0.0233
    111 H          12.5557    8.9471    0.0000 H       1  UNL1        0.0233
    112 H          12.0632   -2.3537    0.0000 H       1  UNL1        0.0937
    113 H          12.0632   -5.0538    0.0000 H       1  UNL1        0.0671
    114 H          10.4611   -5.1288    0.0000 H       1  UNL1        0.0651
    115 H          10.3312   -2.3537    0.0000 H       1  UNL1        0.0647
    116 H           9.5950   -3.7788    0.0000 H       1  UNL1        0.0651
    117 H          13.4662   -4.3938    0.0000 H       1  UNL1        0.2101
    118 H           8.8546   -2.5961    0.0000 H       1  UNL1        0.0584
    119 H           9.2531   -3.2864    0.0000 H       1  UNL1        0.0584
    120 H          11.3271   -6.6288    0.0000 H       1  UNL1        0.0937
    121 H           8.5991   -5.0538    0.0000 H       1  UNL1        0.0938
    122 H           8.9282   -1.3938    0.0000 H       1  UNL1        0.2095
    123 H          12.7993   -6.7788    0.0000 H       1  UNL1        0.0671
    124 H           6.9970   -5.1288    0.0000 H       1  UNL1        0.0671
    125 H          12.1931   -8.1288    0.0000 H       1  UNL1        0.0647
    126 H           6.1309   -3.7788    0.0000 H       1  UNL1        0.0648
    127 H           8.4692   -2.2788    0.0000 H       1  UNL1        0.0621
    128 H          14.4058   -6.3114    0.0000 H       1  UNL1        0.0587
    129 H          14.0073   -5.6211    0.0000 H       1  UNL1        0.0587
    130 H           6.8671   -2.3537    0.0000 H       1  UNL1        0.0650
    131 H          14.5314   -6.7788    0.0000 H       1  UNL1        0.0643
    132 H          11.1972   -8.3238    0.0000 H       1  UNL1        0.2101
    133 H           8.2700   -6.0138    0.0000 H       1  UNL1        0.2101
    134 H           8.3531   -1.7038    0.0000 H       1  UNL1        0.0255
    135 H           7.7331   -1.0838    0.0000 H       1  UNL1        0.0255
    136 H           7.1131   -1.7038    0.0000 H       1  UNL1        0.0255
    137 H          13.4662   -9.0138    0.0000 H       1  UNL1        0.2100
    138 H           6.0010   -5.3238    0.0000 H       1  UNL1        0.2100
    139 H          15.1982   -7.3938    0.0000 H       1  UNL1        0.2100
    140 H           5.1350   -2.3537    0.0000 H       1  UNL1        0.0937
    141 H           3.5329   -2.2788    0.0000 H       1  UNL1        0.0671
    142 H           4.1391   -3.6288    0.0000 H       1  UNL1        0.0647
    143 H           3.4030   -5.0538    0.0000 H       1  UNL1        0.0643
    144 H           3.8705   -5.1787    0.0000 H       1  UNL1        0.0587
    145 H           4.6675   -5.1787    0.0000 H       1  UNL1        0.0587
    146 H           3.7320   -1.3938    0.0000 H       1  UNL1        0.2101
    147 H           2.0000   -3.0138    0.0000 H       1  UNL1        0.2100
    148 H           2.5369   -5.3238    0.0000 H       1  UNL1        0.2100
@<TRIPOS>BOND
     1     1    25    1
     2     1    31    1
     3     2    45    1
     4     2    48    1
     5     3    48    1
     6     3    51    1
     7     4    49    1
     8     4   117    1
     9     5    50    1
    10     5    54    1
    11     6    52    1
    12     6    55    1
    13     7    53    1
    14     7   122    1
    15     8    54    1
    16     8    61    1
    17     9    55    1
    18     9    60    1
    19    10    56    1
    20    10   132    1
    21    11    57    1
    22    11   133    1
    23    12    58    1
    24    12   137    1
    25    13    59    1
    26    13   138    1
    27    14    63    1
    28    14    65    1
    29    15    62    1
    30    15   139    1
    31    16    65    1
    32    16    69    1
    33    17    66    1
    34    17   146    1
    35    18    67    1
    36    18   147    1
    37    19    68    1
    38    19   148    1
    39    20    31    1
    40    20    44    1
    41    20    95    1
    42    21    22    1
    43    21    23    1
    44    21    29    1
    45    21    33    1
    46    22    24    1
    47    22    27    1
    48    22    70    1
    49    23    25    1
    50    23    28    1
    51    23    71    1
    52    24    26    1
    53    24    34    1
    54    24    72    1
    55    25    27    1
    56    25    73    1
    57    26    30    1
    58    26    32    1
    59    26    74    1
    60    27    75    1
    61    27    76    1
    62    28    31    1
    63    28    38    1
    64    28    77    1
    65    29    30    1
    66    29    78    1
    67    29    79    1
    68    30    80    1
    69    30    81    1
    70    31    36    1
    71    32    35    1
    72    32    37    1
    73    32    40    1
    74    33    82    1
    75    33    83    1
    76    33    84    1
    77    34    39    1
    78    34    85    1
    79    34    86    1
    80    35    39    2
    81    35    41    1
    82    36    43    1
    83    36    87    1
    84    36    88    1
    85    37    42    1
    86    37    89    1
    87    37    90    1
    88    38    91    1
    89    38    92    1
    90    38    93    1
    91    39    94    1
    92    40    96    1
    93    40    97    1
    94    40    98    1
    95    41    45    1
    96    41    99    1
    97    41   100    1
    98    42    45    1
    99    42   101    1
   100    42   102    1
   101    43    46    1
   102    43   103    1
   103    43   104    1
   104    44    46    1
   105    44   105    1
   106    44   106    1
   107    45   107    1
   108    46    47    1
   109    46   108    1
   110    47   109    1
   111    47   110    1
   112    47   111    1
   113    48    49    1
   114    48   112    1
   115    49    50    1
   116    49   113    1
   117    50    52    1
   118    50   114    1
   119    51    52    1
   120    51    53    1
   121    51   115    1
   122    52   116    1
   123    53   118    1
   124    53   119    1
   125    54    56    1
   126    54   120    1
   127    55    57    1
   128    55   121    1
   129    56    58    1
   130    56   123    1
   131    57    59    1
   132    57   124    1
   133    58    62    1
   134    58   125    1
   135    59    63    1
   136    59   126    1
   137    60    63    1
   138    60    64    1
   139    60   127    1
   140    61    62    1
   141    61   128    1
   142    61   129    1
   143    62   131    1
   144    63   130    1
   145    64   134    1
   146    64   135    1
   147    64   136    1
   148    65    66    1
   149    65   140    1
   150    66    67    1
   151    66   141    1
   152    67    68    1
   153    67   142    1
   154    68    69    1
   155    68   143    1
   156    69   144    1
   157    69   145    1
