@<TRIPOS>MOLECULE
IMPHY010076
 25 25 0 0 0
SMALL
GASTEIGER

@<TRIPOS>ATOM
      1 O           3.7601   -0.4530    0.0000 O.3     1  UNL1       -0.4610
      2 O           2.0000   -0.1743    0.0000 O.2     1  UNL1       -0.2508
      3 C           4.5691    0.1348    0.0000 C.3     1  UNL1        0.1070
      4 C           4.2601    1.0858    0.0000 C.3     1  UNL1       -0.0053
      5 C           3.2601    1.0858    0.0000 C.3     1  UNL1        0.0483
      6 C           5.5202   -0.1743    0.0000 C.3     1  UNL1        0.0026
      7 C           2.9511    0.1348    0.0000 C.2     1  UNL1        0.3075
      8 C           6.2633    0.4949    0.0000 C.2     1  UNL1       -0.0845
      9 C           7.2144    0.1858    0.0000 C.2     1  UNL1       -0.0881
     10 C           7.4223   -0.7923    0.0000 C.3     1  UNL1       -0.0376
     11 C           8.3733   -1.1013    0.0000 C.3     1  UNL1       -0.0618
     12 H           4.6661   -0.4776    0.0000 H       1  UNL1        0.0737
     13 H           4.8665    1.2147    0.0000 H       1  UNL1        0.0306
     14 H           4.1953    1.7024    0.0000 H       1  UNL1        0.0306
     15 H           3.3249    1.7024    0.0000 H       1  UNL1        0.0379
     16 H           2.6536    1.2147    0.0000 H       1  UNL1        0.0379
     17 H           5.2291   -0.7217    0.0000 H       1  UNL1        0.0343
     18 H           6.0087   -0.5560    0.0000 H       1  UNL1        0.0343
     19 H           6.1344    1.1013    0.0000 H       1  UNL1        0.0570
     20 H           7.6751    0.6007    0.0000 H       1  UNL1        0.0569
     21 H           6.8026   -0.8139    0.0000 H       1  UNL1        0.0305
     22 H           7.3360   -1.4063    0.0000 H       1  UNL1        0.0305
     23 H           8.1817   -1.6910    0.0000 H       1  UNL1        0.0233
     24 H           8.9630   -1.2929    0.0000 H       1  UNL1        0.0233
     25 H           8.5649   -0.5117    0.0000 H       1  UNL1        0.0233
@<TRIPOS>BOND
     1     1     3    1
     2     1     7    1
     3     2     7    2
     4     3     4    1
     5     3     6    1
     6     3    12    1
     7     4     5    1
     8     4    13    1
     9     4    14    1
    10     5     7    1
    11     5    15    1
    12     5    16    1
    13     6     8    1
    14     6    17    1
    15     6    18    1
    16     8     9    2
    17     8    19    1
    18     9    10    1
    19     9    20    1
    20    10    11    1
    21    10    21    1
    22    10    22    1
    23    11    23    1
    24    11    24    1
    25    11    25    1
