@<TRIPOS>MOLECULE
IMPHY011097
 57 57 0 0 0
SMALL
GASTEIGER

@<TRIPOS>ATOM
      1 O           2.0000    1.0000    0.0000 O.3     1  UNL1       -0.3903
      2 O          15.8564   -1.0000    0.0000 O.3     1  UNL1       -0.4806
      3 O          14.9904    0.5000    0.0000 O.2     1  UNL1       -0.2510
      4 N           3.7320   -1.0000    0.0000 N.3     1  UNL1       -0.3083
      5 C           4.5981   -0.5000    0.0000 C.3     1  UNL1        0.0080
      6 C           4.5981    0.5000    0.0000 C.3     1  UNL1       -0.0352
      7 C           2.8660   -0.5000    0.0000 C.3     1  UNL1        0.0310
      8 C           2.8660    0.5000    0.0000 C.3     1  UNL1        0.0703
      9 C           3.7320    1.0000    0.0000 C.3     1  UNL1       -0.0240
     10 C           5.4641   -1.0000    0.0000 C.3     1  UNL1       -0.0375
     11 C           6.3301   -0.5000    0.0000 C.3     1  UNL1       -0.0516
     12 C           7.1962   -1.0000    0.0000 C.3     1  UNL1       -0.0530
     13 C           2.0000   -1.0000    0.0000 C.3     1  UNL1       -0.0473
     14 C           8.0622   -0.5000    0.0000 C.3     1  UNL1       -0.0531
     15 C           8.9282   -1.0000    0.0000 C.3     1  UNL1       -0.0531
     16 C           9.7942   -0.5000    0.0000 C.3     1  UNL1       -0.0531
     17 C          10.6603   -1.0000    0.0000 C.3     1  UNL1       -0.0531
     18 C          11.5263   -0.5000    0.0000 C.3     1  UNL1       -0.0530
     19 C          12.3923   -1.0000    0.0000 C.3     1  UNL1       -0.0526
     20 C          13.2583   -0.5000    0.0000 C.3     1  UNL1       -0.0430
     21 C          14.1244   -1.0000    0.0000 C.3     1  UNL1        0.0448
     22 C          14.9904   -0.5000    0.0000 C.2     1  UNL1        0.3047
     23 H           4.5981   -1.1200    0.0000 H       1  UNL1        0.0460
     24 H           5.2087    0.3923    0.0000 H       1  UNL1        0.0281
     25 H           4.8101    1.0826    0.0000 H       1  UNL1        0.0281
     26 H           2.8660   -1.1200    0.0000 H       1  UNL1        0.0483
     27 H           2.8660    1.1200    0.0000 H       1  UNL1        0.0609
     28 H           4.1306    1.4750    0.0000 H       1  UNL1        0.0291
     29 H           3.3335    1.4750    0.0000 H       1  UNL1        0.0291
     30 H           5.0656   -1.4750    0.0000 H       1  UNL1        0.0280
     31 H           5.8626   -1.4750    0.0000 H       1  UNL1        0.0280
     32 H           3.7320   -1.6200    0.0000 H       1  UNL1        0.1225
     33 H           6.7287   -0.0251    0.0000 H       1  UNL1        0.0266
     34 H           5.9316   -0.0251    0.0000 H       1  UNL1        0.0266
     35 H           6.7976   -1.4750    0.0000 H       1  UNL1        0.0265
     36 H           7.5947   -1.4750    0.0000 H       1  UNL1        0.0265
     37 H           1.6900   -0.4631    0.0000 H       1  UNL1        0.0245
     38 H           1.4631   -1.3100    0.0000 H       1  UNL1        0.0245
     39 H           2.3100   -1.5369    0.0000 H       1  UNL1        0.0245
     40 H           8.4607   -0.0251    0.0000 H       1  UNL1        0.0265
     41 H           7.6636   -0.0251    0.0000 H       1  UNL1        0.0265
     42 H           8.5297   -1.4750    0.0000 H       1  UNL1        0.0265
     43 H           9.3267   -1.4750    0.0000 H       1  UNL1        0.0265
     44 H           2.0000    1.6200    0.0000 H       1  UNL1        0.2098
     45 H          10.1928   -0.0251    0.0000 H       1  UNL1        0.0265
     46 H           9.3957   -0.0251    0.0000 H       1  UNL1        0.0265
     47 H          10.2617   -1.4750    0.0000 H       1  UNL1        0.0265
     48 H          11.0588   -1.4750    0.0000 H       1  UNL1        0.0265
     49 H          11.9248   -0.0251    0.0000 H       1  UNL1        0.0265
     50 H          11.1278   -0.0251    0.0000 H       1  UNL1        0.0265
     51 H          11.9938   -1.4750    0.0000 H       1  UNL1        0.0265
     52 H          12.7908   -1.4750    0.0000 H       1  UNL1        0.0265
     53 H          13.6569   -0.0251    0.0000 H       1  UNL1        0.0270
     54 H          12.8598   -0.0251    0.0000 H       1  UNL1        0.0270
     55 H          13.7258   -1.4750    0.0000 H       1  UNL1        0.0377
     56 H          14.5229   -1.4750    0.0000 H       1  UNL1        0.0377
     57 H          16.3933   -0.6900    0.0000 H       1  UNL1        0.2951
@<TRIPOS>BOND
     1     8     1    1
     2     1    44    1
     3     2    22    1
     4     2    57    1
     5     3    22    2
     6     4     5    1
     7     4     7    1
     8     4    32    1
     9     5     6    1
    10     5    10    1
    11     5    23    1
    12     6     9    1
    13     6    24    1
    14     6    25    1
    15     7     8    1
    16     7    13    1
    17     7    26    1
    18     8     9    1
    19     8    27    1
    20     9    28    1
    21     9    29    1
    22    10    11    1
    23    10    30    1
    24    10    31    1
    25    11    12    1
    26    11    33    1
    27    11    34    1
    28    12    14    1
    29    12    35    1
    30    12    36    1
    31    13    37    1
    32    13    38    1
    33    13    39    1
    34    14    15    1
    35    14    40    1
    36    14    41    1
    37    15    16    1
    38    15    42    1
    39    15    43    1
    40    16    17    1
    41    16    45    1
    42    16    46    1
    43    17    18    1
    44    17    47    1
    45    17    48    1
    46    18    19    1
    47    18    49    1
    48    18    50    1
    49    19    20    1
    50    19    51    1
    51    19    52    1
    52    20    21    1
    53    20    53    1
    54    20    54    1
    55    21    22    1
    56    21    55    1
    57    21    56    1
