@<TRIPOS>MOLECULE
IMPHY005674
 17 17 0 0 0
SMALL
GASTEIGER

@<TRIPOS>ATOM
      1 O           2.8090   -0.0852    0.0000 O.2     1  UNL1       -0.4674
      2 O           4.0339   -1.4537    0.0000 O.2     1  UNL1       -0.2972
      3 C           4.5691    0.1936    0.0000 C.3     1  UNL1        0.0637
      4 C           3.6180    0.5026    0.0000 C.ar    1  UNL1        0.1119
      5 C           4.7770   -0.7845    0.0000 C.2     1  UNL1        0.1376
      6 C           3.3090    1.4537    0.0000 C.ar    1  UNL1       -0.0203
      7 C           2.3090    1.4537    0.0000 C.ar    1  UNL1       -0.0236
      8 C           5.7281   -1.0936    0.0000 C.3     1  UNL1       -0.0056
      9 C           2.0000    0.5026    0.0000 C.ar    1  UNL1        0.0921
     10 H           5.1887    0.2152    0.0000 H       1  UNL1        0.0421
     11 H           4.6554    0.8076    0.0000 H       1  UNL1        0.0421
     12 H           3.6734    1.9553    0.0000 H       1  UNL1        0.0652
     13 H           1.9446    1.9553    0.0000 H       1  UNL1        0.0649
     14 H           5.5365   -1.6832    0.0000 H       1  UNL1        0.0306
     15 H           6.3177   -1.2852    0.0000 H       1  UNL1        0.0306
     16 H           5.9196   -0.5039    0.0000 H       1  UNL1        0.0306
     17 H           1.4103    0.3110    0.0000 H       1  UNL1        0.1029
@<TRIPOS>BOND
     1     1     4   ar
     2     1     9   ar
     3     2     5    2
     4     3     4    1
     5     3     5    1
     6     3    10    1
     7     3    11    1
     8     4     6   ar
     9     5     8    1
    10     6     7   ar
    11     6    12    1
    12     7     9   ar
    13     7    13    1
    14     8    14    1
    15     8    15    1
    16     8    16    1
    17     9    17    1
