@<TRIPOS>MOLECULE
IMPHY011452
 73 78 0 0 0
SMALL
GASTEIGER

@<TRIPOS>ATOM
      1 O           2.0000    0.2394    0.0000 O.2     1  UNL1       -0.2971
      2 O           2.6318   -3.4787    0.0000 O.3     1  UNL1       -0.3918
      3 N           8.9057    1.4884    0.0000 N.3     1  UNL1       -0.2986
      4 C           6.2397    1.0093    0.0000 C.3     1  UNL1       -0.0334
      5 C           5.0418   -0.0656    0.0000 C.3     1  UNL1       -0.0312
      6 C           5.3737    1.5093    0.0000 C.3     1  UNL1       -0.0344
      7 C           4.6367    0.8422    0.0000 C.3     1  UNL1       -0.0279
      8 C           7.1057    1.5093    0.0000 C.3     1  UNL1       -0.0220
      9 C           4.4469   -0.9131    0.0000 C.3     1  UNL1       -0.0193
     10 C           6.0305    0.0374    0.0000 C.3     1  UNL1       -0.0460
     11 C           7.1057    2.5093    0.0000 C.3     1  UNL1       -0.0328
     12 C           5.3737    2.5093    0.0000 C.3     1  UNL1       -0.0494
     13 C           3.4162   -0.8137    0.0000 C.3     1  UNL1        0.0255
     14 C           6.2397    3.0093    0.0000 C.3     1  UNL1       -0.0493
     15 C           3.6086    0.9654    0.0000 C.3     1  UNL1        0.0095
     16 C           7.9997    3.0439    0.0000 C.3     1  UNL1       -0.0251
     17 C           7.9997    0.9746    0.0000 C.3     1  UNL1        0.0025
     18 C           4.9091   -1.8876    0.0000 C.3     1  UNL1       -0.0444
     19 C           8.9057    2.5301    0.0000 C.3     1  UNL1        0.0133
     20 C           2.9942    0.1319    0.0000 C.2     1  UNL1        0.1373
     21 C           5.4422   -1.0091    0.0000 C.3     1  UNL1       -0.0587
     22 C           2.7763   -1.6819    0.0000 C.3     1  UNL1       -0.0168
     23 C           4.2894   -2.7704    0.0000 C.3     1  UNL1       -0.0263
     24 C           3.2158   -2.6669    0.0000 C.3     1  UNL1        0.0559
     25 C           9.8369    3.0870    0.0000 C.3     1  UNL1       -0.0368
     26 C           9.8369    0.9315    0.0000 C.3     1  UNL1        0.0018
     27 C           7.9881    4.0439    0.0000 C.3     1  UNL1       -0.0607
     28 C          10.7807    1.4668    0.0000 C.3     1  UNL1       -0.0310
     29 C          10.7807    2.5518    0.0000 C.3     1  UNL1       -0.0479
     30 C          11.6448    0.9634    0.0000 C.3     1  UNL1       -0.0613
     31 H           6.9267    0.5088    0.0000 H       1  UNL1        0.0307
     32 H           5.3559   -0.6001    0.0000 H       1  UNL1        0.0309
     33 H           4.5967    1.8540    0.0000 H       1  UNL1        0.0306
     34 H           4.3788    1.6521    0.0000 H       1  UNL1        0.0310
     35 H           7.0992    0.6593    0.0000 H       1  UNL1        0.0319
     36 H           6.0296   -0.5826    0.0000 H       1  UNL1        0.0271
     37 H           6.6470   -0.0286    0.0000 H       1  UNL1        0.0271
     38 H           7.0992    3.3592    0.0000 H       1  UNL1        0.0307
     39 H           5.1616    3.0919    0.0000 H       1  UNL1        0.0268
     40 H           4.7631    2.4016    0.0000 H       1  UNL1        0.0268
     41 H           2.5711   -0.7223    0.0000 H       1  UNL1        0.0384
     42 H           6.6382    3.4842    0.0000 H       1  UNL1        0.0268
     43 H           5.8412    3.4842    0.0000 H       1  UNL1        0.0268
     44 H           3.7866    1.5593    0.0000 H       1  UNL1        0.0345
     45 H           3.0539    1.2424    0.0000 H       1  UNL1        0.0345
     46 H           7.4586    3.3467    0.0000 H       1  UNL1        0.0316
     47 H           7.5951    0.5048    0.0000 H       1  UNL1        0.0429
     48 H           8.3933    0.4956    0.0000 H       1  UNL1        0.0429
     49 H           5.3481   -2.3254    0.0000 H       1  UNL1        0.0272
     50 H           5.4155   -1.5300    0.0000 H       1  UNL1        0.0272
     51 H           8.8959    3.3800    0.0000 H       1  UNL1        0.0465
     52 H           5.3827   -1.6262    0.0000 H       1  UNL1        0.0235
     53 H           6.0594   -1.0686    0.0000 H       1  UNL1        0.0235
     54 H           5.5018   -0.3920    0.0000 H       1  UNL1        0.0235
     55 H           2.3475   -1.2341    0.0000 H       1  UNL1        0.0297
     56 H           2.2617   -2.0278    0.0000 H       1  UNL1        0.0297
     57 H           4.1252   -3.3683    0.0000 H       1  UNL1        0.0290
     58 H           4.8503   -3.0345    0.0000 H       1  UNL1        0.0290
     59 H           2.5990   -2.6038    0.0000 H       1  UNL1        0.0593
     60 H          10.2305    3.5660    0.0000 H       1  UNL1        0.0280
     61 H           9.4323    3.5568    0.0000 H       1  UNL1        0.0280
     62 H           9.4323    0.4617    0.0000 H       1  UNL1        0.0429
     63 H          10.2305    0.4525    0.0000 H       1  UNL1        0.0429
     64 H           8.6081    4.0510    0.0000 H       1  UNL1        0.0233
     65 H           7.9809    4.6638    0.0000 H       1  UNL1        0.0233
     66 H           7.3682    4.0367    0.0000 H       1  UNL1        0.0233
     67 H          10.7771    0.8468    0.0000 H       1  UNL1        0.0310
     68 H          11.3915    2.4457    0.0000 H       1  UNL1        0.0269
     69 H          10.9897    3.1354    0.0000 H       1  UNL1        0.0269
     70 H           2.8867   -4.0439    0.0000 H       1  UNL1        0.2098
     71 H          11.3327    0.4277    0.0000 H       1  UNL1        0.0233
     72 H          12.1805    0.6514    0.0000 H       1  UNL1        0.0233
     73 H          11.9568    1.4992    0.0000 H       1  UNL1        0.0233
@<TRIPOS>BOND
     1     1    20    2
     2    24     2    1
     3     2    70    1
     4     3    17    1
     5     3    19    1
     6     3    26    1
     7     4     6    1
     8     4     8    1
     9     4    10    1
    10     4    31    1
    11     5     7    1
    12     5     9    1
    13     5    10    1
    14     5    32    1
    15     6     7    1
    16     6    12    1
    17     6    33    1
    18     7    15    1
    19     7    34    1
    20     8    11    1
    21     8    17    1
    22     8    35    1
    23     9    13    1
    24     9    18    1
    25     9    21    1
    26    10    36    1
    27    10    37    1
    28    11    14    1
    29    11    16    1
    30    11    38    1
    31    12    14    1
    32    12    39    1
    33    12    40    1
    34    13    20    1
    35    13    22    1
    36    13    41    1
    37    14    42    1
    38    14    43    1
    39    15    20    1
    40    15    44    1
    41    15    45    1
    42    16    19    1
    43    16    27    1
    44    16    46    1
    45    17    47    1
    46    17    48    1
    47    18    23    1
    48    18    49    1
    49    18    50    1
    50    19    25    1
    51    19    51    1
    52    21    52    1
    53    21    53    1
    54    21    54    1
    55    22    24    1
    56    22    55    1
    57    22    56    1
    58    23    24    1
    59    23    57    1
    60    23    58    1
    61    24    59    1
    62    25    29    1
    63    25    60    1
    64    25    61    1
    65    26    28    1
    66    26    62    1
    67    26    63    1
    68    27    64    1
    69    27    65    1
    70    27    66    1
    71    28    29    1
    72    28    30    1
    73    28    67    1
    74    29    68    1
    75    29    69    1
    76    30    71    1
    77    30    72    1
    78    30    73    1
