@<TRIPOS>MOLECULE
IMPHY013582
 73 77 0 0 0
SMALL
GASTEIGER

@<TRIPOS>ATOM
      1 O           6.0258   -0.5406    0.0000 O.3     1  UNL1       -0.3313
      2 O           4.2559    0.5037    0.0000 O.3     1  UNL1       -0.3339
      3 O           7.7578   -0.5406    0.0000 O.3     1  UNL1       -0.4534
      4 O           5.9879    0.4904    0.0000 O.3     1  UNL1       -0.4569
      5 O           6.0258   -3.5406    0.0000 O.3     1  UNL1       -0.3864
      6 O           4.2937   -2.5406    0.0000 O.3     1  UNL1       -0.3865
      7 O           7.7578   -2.5406    0.0000 O.3     1  UNL1       -0.3829
      8 O           4.2790    3.5036    0.0000 O.3     1  UNL1       -0.3864
      9 O           2.5393    2.5170    0.0000 O.3     1  UNL1       -0.3866
     10 O           6.0033    2.4903    0.0000 O.3     1  UNL1       -0.3829
     11 O           3.4277   -1.0406    0.0000 O.3     1  UNL1       -0.3924
     12 O           9.5181    0.4737    0.0000 O.2     1  UNL1       -0.4470
     13 O           7.8049    3.5283    0.0000 O.3     1  UNL1       -0.5058
     14 O           9.5528    3.4735    0.0000 O.2     1  UNL1       -0.2830
     15 O          11.2731    2.4535    0.0000 O.3     1  UNL1       -0.5007
     16 O          13.8306   -1.0763    0.0000 O.3     1  UNL1       -0.5068
     17 C           6.0258   -2.5406    0.0000 C.3     1  UNL1        0.1152
     18 C           5.1597   -2.0406    0.0000 C.3     1  UNL1        0.1120
     19 C           6.8918   -2.0406    0.0000 C.3     1  UNL1        0.1454
     20 C           5.1597   -1.0406    0.0000 C.3     1  UNL1        0.1140
     21 C           4.2713    2.5036    0.0000 C.3     1  UNL1        0.1151
     22 C           3.4014    2.0103    0.0000 C.3     1  UNL1        0.1096
     23 C           6.8918   -1.0406    0.0000 C.3     1  UNL1        0.2311
     24 C           5.1334    1.9970    0.0000 C.3     1  UNL1        0.1454
     25 C           3.3938    1.0104    0.0000 C.3     1  UNL1        0.0883
     26 C           5.1258    0.9970    0.0000 C.3     1  UNL1        0.2309
     27 C           4.2937   -0.5406    0.0000 C.3     1  UNL1        0.0731
     28 C           2.5239    0.5171    0.0000 C.3     1  UNL1       -0.0360
     29 C           7.7578    0.4594    0.0000 C.ar    1  UNL1        0.2084
     30 C           6.8577    0.9837    0.0000 C.ar    1  UNL1        0.1727
     31 C           8.6579    0.9837    0.0000 C.ar    1  UNL1        0.1882
     32 C           6.8698    2.0252    0.0000 C.ar    1  UNL1        0.0263
     33 C           8.6694    1.9836    0.0000 C.ar    1  UNL1        0.1128
     34 C           7.7817    2.5286    0.0000 C.ar    1  UNL1        0.1350
     35 C           9.5412    2.4736    0.0000 C.ar    1  UNL1        0.2380
     36 C          10.3898    0.9636    0.0000 C.ar    1  UNL1        0.1808
     37 C          10.4014    1.9636    0.0000 C.ar    1  UNL1        0.2082
     38 C          11.2500    0.4537    0.0000 C.ar    1  UNL1        0.0213
     39 C          12.1217    0.9436    0.0000 C.ar    1  UNL1       -0.0475
     40 C          11.2384   -0.5463    0.0000 C.ar    1  UNL1       -0.0475
     41 C          12.9819    0.4336    0.0000 C.ar    1  UNL1       -0.0195
     42 C          12.0986   -1.0563    0.0000 C.ar    1  UNL1       -0.0195
     43 C          12.9704   -0.5663    0.0000 C.ar    1  UNL1        0.1169
     44 H           5.4888   -2.8506    0.0000 H       1  UNL1        0.0648
     45 H           5.1597   -2.6606    0.0000 H       1  UNL1        0.0647
     46 H           6.8918   -2.6606    0.0000 H       1  UNL1        0.0683
     47 H           5.1597   -0.4206    0.0000 H       1  UNL1        0.0647
     48 H           4.8106    2.8095    0.0000 H       1  UNL1        0.0648
     49 H           3.4062    2.6303    0.0000 H       1  UNL1        0.0646
     50 H           7.4287   -1.3506    0.0000 H       1  UNL1        0.1084
     51 H           5.1382    2.6170    0.0000 H       1  UNL1        0.0683
     52 H           3.3890    0.3904    0.0000 H       1  UNL1        0.0621
     53 H           5.6650    1.3029    0.0000 H       1  UNL1        0.1084
     54 H           4.6922   -0.0657    0.0000 H       1  UNL1        0.0584
     55 H           3.8952   -0.0657    0.0000 H       1  UNL1        0.0584
     56 H           2.2180    1.0564    0.0000 H       1  UNL1        0.0255
     57 H           1.9846    0.2112    0.0000 H       1  UNL1        0.0255
     58 H           2.8297   -0.0223    0.0000 H       1  UNL1        0.0255
     59 H           5.4888   -3.8506    0.0000 H       1  UNL1        0.2100
     60 H           4.2937   -3.1606    0.0000 H       1  UNL1        0.2100
     61 H           7.7578   -3.1606    0.0000 H       1  UNL1        0.2102
     62 H           3.7445    3.8178    0.0000 H       1  UNL1        0.2100
     63 H           2.0000    2.2112    0.0000 H       1  UNL1        0.2100
     64 H           6.0081    3.1103    0.0000 H       1  UNL1        0.2102
     65 H           6.3377    2.3435    0.0000 H       1  UNL1        0.0692
     66 H           2.8908   -0.7306    0.0000 H       1  UNL1        0.2095
     67 H           7.2752    3.8506    0.0000 H       1  UNL1        0.2922
     68 H          12.1289    1.5636    0.0000 H       1  UNL1        0.0626
     69 H          10.6979   -0.8500    0.0000 H       1  UNL1        0.0626
     70 H          11.2803    3.0735    0.0000 H       1  UNL1        0.2924
     71 H          13.5224    0.7374    0.0000 H       1  UNL1        0.0654
     72 H          12.0914   -1.6762    0.0000 H       1  UNL1        0.0654
     73 H          14.3710   -0.7725    0.0000 H       1  UNL1        0.2921
@<TRIPOS>BOND
     1     1    20    1
     2     1    23    1
     3     2    25    1
     4     2    26    1
     5    23     3    1
     6     3    29    1
     7    26     4    1
     8     4    30    1
     9    17     5    1
    10     5    59    1
    11    18     6    1
    12     6    60    1
    13    19     7    1
    14     7    61    1
    15    21     8    1
    16     8    62    1
    17    22     9    1
    18     9    63    1
    19    24    10    1
    20    10    64    1
    21    11    27    1
    22    11    66    1
    23    12    31   ar
    24    12    36   ar
    25    13    34    1
    26    13    67    1
    27    14    35    2
    28    15    37    1
    29    15    70    1
    30    16    43    1
    31    16    73    1
    32    17    18    1
    33    17    19    1
    34    17    44    1
    35    18    20    1
    36    18    45    1
    37    19    23    1
    38    19    46    1
    39    20    27    1
    40    20    47    1
    41    21    22    1
    42    21    24    1
    43    21    48    1
    44    22    25    1
    45    22    49    1
    46    23    50    1
    47    24    26    1
    48    24    51    1
    49    25    28    1
    50    25    52    1
    51    26    53    1
    52    27    54    1
    53    27    55    1
    54    28    56    1
    55    28    57    1
    56    28    58    1
    57    29    30   ar
    58    29    31   ar
    59    30    32   ar
    60    31    33   ar
    61    32    34   ar
    62    32    65    1
    63    33    34   ar
    64    33    35   ar
    65    35    37   ar
    66    36    37   ar
    67    36    38    1
    68    38    39   ar
    69    38    40   ar
    70    39    41   ar
    71    39    68    1
    72    40    42   ar
    73    40    69    1
    74    41    43   ar
    75    41    71    1
    76    42    43   ar
    77    42    72    1
