@<TRIPOS>MOLECULE
IMPHY016853
 42 43 0 0 0
SMALL
GASTEIGER

@<TRIPOS>ATOM
      1 O           2.6200   -1.6040    0.0000 O.3     1  UNL1       -0.3882
      2 C           3.9860    0.7621    0.0000 C.3     1  UNL1       -0.0229
      3 C           3.9860   -0.2379    0.0000 C.3     1  UNL1        0.0113
      4 C           3.1200   -0.7379    0.0000 C.3     1  UNL1        0.0700
      5 C           3.1200    1.2621    0.0000 C.3     1  UNL1       -0.0469
      6 C           4.8800    1.2967    0.0000 C.3     1  UNL1       -0.0433
      7 C           2.2540   -0.2379    0.0000 C.3     1  UNL1       -0.0237
      8 C           2.2540    0.7621    0.0000 C.3     1  UNL1       -0.0499
      9 C           4.8800   -0.7726    0.0000 C.2     1  UNL1       -0.0782
     10 C           5.7860    0.7829    0.0000 C.3     1  UNL1       -0.0310
     11 C           3.9860    1.7621    0.0000 C.3     1  UNL1       -0.0589
     12 C           5.7860   -0.2587    0.0000 C.2     1  UNL1       -0.0705
     13 C           3.6200   -1.6040    0.0000 C.3     1  UNL1       -0.0355
     14 C           6.6501   -0.7621    0.0000 C.3     1  UNL1       -0.0256
     15 C           7.5181   -0.2654    0.0000 C.3     1  UNL1       -0.0590
     16 C           6.6463   -1.7621    0.0000 C.3     1  UNL1       -0.0590
     17 H           3.9812   -0.8579    0.0000 H       1  UNL1        0.0376
     18 H           3.5185    1.7370    0.0000 H       1  UNL1        0.0271
     19 H           2.7215    1.7370    0.0000 H       1  UNL1        0.0271
     20 H           5.2736    1.7758    0.0000 H       1  UNL1        0.0274
     21 H           4.4754    1.7665    0.0000 H       1  UNL1        0.0274
     22 H           1.6434   -0.1303    0.0000 H       1  UNL1        0.0293
     23 H           2.0419   -0.8205    0.0000 H       1  UNL1        0.0293
     24 H           2.0419    1.3447    0.0000 H       1  UNL1        0.0266
     25 H           1.6434    0.6544    0.0000 H       1  UNL1        0.0266
     26 H           4.8728   -1.3926    0.0000 H       1  UNL1        0.0576
     27 H           6.3969    0.6768    0.0000 H       1  UNL1        0.0310
     28 H           5.9951    1.3666    0.0000 H       1  UNL1        0.0310
     29 H           4.6060    1.7621    0.0000 H       1  UNL1        0.0235
     30 H           3.9860    2.3821    0.0000 H       1  UNL1        0.0235
     31 H           3.3660    1.7621    0.0000 H       1  UNL1        0.0235
     32 H           3.0831   -1.9140    0.0000 H       1  UNL1        0.0257
     33 H           3.9300   -2.1409    0.0000 H       1  UNL1        0.0257
     34 H           4.1569   -1.2940    0.0000 H       1  UNL1        0.0257
     35 H           7.1859   -1.0742    0.0000 H       1  UNL1        0.0340
     36 H           2.0000   -1.6040    0.0000 H       1  UNL1        0.2102
     37 H           7.8260   -0.8035    0.0000 H       1  UNL1        0.0235
     38 H           8.0562    0.0425    0.0000 H       1  UNL1        0.0235
     39 H           7.2101    0.2727    0.0000 H       1  UNL1        0.0235
     40 H           6.0263   -1.7597    0.0000 H       1  UNL1        0.0235
     41 H           6.6439   -2.3821    0.0000 H       1  UNL1        0.0235
     42 H           7.2663   -1.7645    0.0000 H       1  UNL1        0.0235
@<TRIPOS>BOND
     1     1     4    1
     2     1    36    1
     3     2     3    1
     4     2     5    1
     5     2     6    1
     6     2    11    1
     7     3     4    1
     8     3     9    1
     9     3    17    1
    10     4     7    1
    11     4    13    1
    12     5     8    1
    13     5    18    1
    14     5    19    1
    15     6    10    1
    16     6    20    1
    17     6    21    1
    18     7     8    1
    19     7    22    1
    20     7    23    1
    21     8    24    1
    22     8    25    1
    23     9    12    2
    24     9    26    1
    25    10    12    1
    26    10    27    1
    27    10    28    1
    28    11    29    1
    29    11    30    1
    30    11    31    1
    31    12    14    1
    32    13    32    1
    33    13    33    1
    34    13    34    1
    35    14    15    1
    36    14    16    1
    37    14    35    1
    38    15    37    1
    39    15    38    1
    40    15    39    1
    41    16    40    1
    42    16    41    1
    43    16    42    1
