@<TRIPOS>MOLECULE
IMPHY010881
 65 70 0 0 0
SMALL
GASTEIGER

@<TRIPOS>ATOM
      1 O           7.7331    4.9388    0.0000 O.3     1  UNL1       -0.3396
      2 O           6.0010    2.9388    0.0000 O.3     1  UNL1       -0.4524
      3 O           8.0752    1.9991    0.0000 O.3     1  UNL1       -0.3853
      4 O           9.4651    2.9388    0.0000 O.3     1  UNL1       -0.3841
      5 O           9.4651    4.9388    0.0000 O.3     1  UNL1       -0.3649
      6 O           6.0010    5.9388    0.0000 O.3     1  UNL1       -0.3923
      7 O           4.0980   -2.3606    0.0000 O.2     1  UNL1       -0.4178
      8 O           7.7641   -2.6365    0.0000 O.2     1  UNL1       -0.4178
      9 O           6.8671    1.4388    0.0000 O.2     1  UNL1       -0.2449
     10 O           7.0838    0.7948    0.0000 O.3     1  UNL1       -0.5028
     11 O           8.3850   -0.6991    0.0000 O.3     1  UNL1       -0.5009
     12 O           4.0954   -1.0460    0.0000 O.3     1  UNL1       -0.5028
     13 O           3.8098   -0.6527    0.0000 O.2     1  UNL1       -0.2445
     14 O           3.4006   -4.2193    0.0000 O.3     1  UNL1       -0.5009
     15 O           2.5369   -0.0612    0.0000 O.3     1  UNL1       -0.5009
     16 O           2.5369    1.9388    0.0000 O.3     1  UNL1       -0.5032
     17 O           4.6418   -5.7632    0.0000 O.3     1  UNL1       -0.5032
     18 O           8.0348   -4.3858    0.0000 O.2     1  UNL1       -0.2445
     19 C           6.8671    3.4388    0.0000 C.3     1  UNL1        0.1598
     20 C           7.7331    2.9388    0.0000 C.3     1  UNL1        0.1251
     21 C           6.8671    4.4388    0.0000 C.3     1  UNL1        0.1240
     22 C           8.5991    3.4388    0.0000 C.3     1  UNL1        0.1350
     23 C           8.5991    4.4388    0.0000 C.3     1  UNL1        0.1855
     24 C           6.0010    4.9388    0.0000 C.3     1  UNL1        0.0741
     25 C           6.0010    1.9388    0.0000 C.2     1  UNL1        0.3404
     26 C           6.0700   -2.0278    0.0000 C.ar    1  UNL1        0.0474
     27 C           5.7778   -0.3273    0.0000 C.ar    1  UNL1        0.0464
     28 C           5.1350    1.4388    0.0000 C.ar    1  UNL1        0.0740
     29 C           5.4329   -1.2571    0.0000 C.ar    1  UNL1        0.0823
     30 C           5.1350    0.4388    0.0000 C.ar    1  UNL1        0.0458
     31 C           5.7210   -2.9650    0.0000 C.ar    1  UNL1        0.0468
     32 C           7.0943   -1.8387    0.0000 C.ar    1  UNL1        0.1854
     33 C           6.7534   -0.1491    0.0000 C.ar    1  UNL1        0.1708
     34 C           6.3722   -3.7780    0.0000 C.ar    1  UNL1        0.0744
     35 C           4.7350   -3.1313    0.0000 C.ar    1  UNL1        0.1854
     36 C           7.4047   -0.8969    0.0000 C.ar    1  UNL1        0.2028
     37 C           4.2690   -0.0612    0.0000 C.ar    1  UNL1        0.1708
     38 C           4.4469   -1.4235    0.0000 C.ar    1  UNL1        0.3460
     39 C           4.2690    1.9388    0.0000 C.ar    1  UNL1       -0.0017
     40 C           7.4006   -3.6126    0.0000 C.ar    1  UNL1        0.3454
     41 C           4.3877   -4.0603    0.0000 C.ar    1  UNL1        0.2022
     42 C           5.9910   -4.6935    0.0000 C.ar    1  UNL1       -0.0017
     43 C           3.4030    0.4388    0.0000 C.ar    1  UNL1        0.2012
     44 C           3.4030    1.4388    0.0000 C.ar    1  UNL1        0.1628
     45 C           5.0091   -4.8331    0.0000 C.ar    1  UNL1        0.1628
     46 H           6.8671    2.8188    0.0000 H       1  UNL1        0.0788
     47 H           7.2582    2.5402    0.0000 H       1  UNL1        0.0659
     48 H           6.8671    5.0588    0.0000 H       1  UNL1        0.0658
     49 H           8.5991    2.8188    0.0000 H       1  UNL1        0.0671
     50 H           9.1360    4.1288    0.0000 H       1  UNL1        0.0935
     51 H           5.3905    5.0464    0.0000 H       1  UNL1        0.0584
     52 H           5.7890    4.3562    0.0000 H       1  UNL1        0.0584
     53 H           8.6857    1.8914    0.0000 H       1  UNL1        0.2101
     54 H          10.0021    3.2488    0.0000 H       1  UNL1        0.2101
     55 H           9.4651    5.5588    0.0000 H       1  UNL1        0.2126
     56 H           5.4641    6.2488    0.0000 H       1  UNL1        0.2095
     57 H           4.2690    2.5588    0.0000 H       1  UNL1        0.0664
     58 H           6.3705   -5.1837    0.0000 H       1  UNL1        0.0664
     59 H           7.6930    0.9099    0.0000 H       1  UNL1        0.2923
     60 H           8.7950   -1.1641    0.0000 H       1  UNL1        0.2924
     61 H           3.5128   -1.2581    0.0000 H       1  UNL1        0.2923
     62 H           3.1799   -4.7988    0.0000 H       1  UNL1        0.2924
     63 H           2.0000    0.2488    0.0000 H       1  UNL1        0.2924
     64 H           2.5369    2.5588    0.0000 H       1  UNL1        0.2923
     65 H           5.0273   -6.2488    0.0000 H       1  UNL1        0.2923
@<TRIPOS>BOND
     1     1    21    1
     2     1    23    1
     3    19     2    1
     4     2    25    1
     5    20     3    1
     6     3    53    1
     7    22     4    1
     8     4    54    1
     9    23     5    1
    10     5    55    1
    11     6    24    1
    12     6    56    1
    13     7    35   ar
    14     7    38   ar
    15     8    32   ar
    16     8    40   ar
    17     9    25    2
    18    10    33    1
    19    10    59    1
    20    11    36    1
    21    11    60    1
    22    12    37    1
    23    12    61    1
    24    13    38    2
    25    14    41    1
    26    14    62    1
    27    15    43    1
    28    15    63    1
    29    16    44    1
    30    16    64    1
    31    17    45    1
    32    17    65    1
    33    18    40    2
    34    19    20    1
    35    19    21    1
    36    19    46    1
    37    20    22    1
    38    20    47    1
    39    21    24    1
    40    21    48    1
    41    22    23    1
    42    22    49    1
    43    23    50    1
    44    24    51    1
    45    24    52    1
    46    25    28    1
    47    26    29   ar
    48    26    31   ar
    49    26    32   ar
    50    27    29   ar
    51    27    30    1
    52    27    33   ar
    53    28    30   ar
    54    28    39   ar
    55    29    38   ar
    56    30    37   ar
    57    31    34   ar
    58    31    35   ar
    59    32    36   ar
    60    33    36   ar
    61    34    40   ar
    62    34    42   ar
    63    35    41   ar
    64    37    43   ar
    65    39    44   ar
    66    39    57    1
    67    41    45   ar
    68    42    45   ar
    69    42    58    1
    70    43    44   ar
