@<TRIPOS>MOLECULE
IMPHY002964
 54 56 0 0 0
SMALL
GASTEIGER

@<TRIPOS>ATOM
      1 O           7.2857   -0.4013    0.0000 O.3     1  UNL1       -0.3842
      2 O           2.3038   -2.3193    0.0000 O.3     1  UNL1       -0.4802
      3 O           3.8137   -3.1679    0.0000 O.2     1  UNL1       -0.2504
      4 O           6.4318    3.1679    0.0000 O.2     1  UNL1       -0.2924
      5 C           4.6876    0.0987    0.0000 C.3     1  UNL1       -0.0221
      6 C           4.6876   -0.9013    0.0000 C.3     1  UNL1       -0.0197
      7 C           5.5536    0.5987    0.0000 C.3     1  UNL1        0.0041
      8 C           3.7937   -1.4360    0.0000 C.3     1  UNL1        0.0681
      9 C           6.4196    0.0987    0.0000 C.3     1  UNL1        0.0885
     10 C           3.7937    0.6333    0.0000 C.3     1  UNL1       -0.0469
     11 C           5.5536   -1.4013    0.0000 C.3     1  UNL1       -0.0458
     12 C           6.4196   -0.9013    0.0000 C.3     1  UNL1       -0.0198
     13 C           2.8876   -0.9221    0.0000 C.3     1  UNL1       -0.0372
     14 C           2.8876    0.1195    0.0000 C.3     1  UNL1       -0.0515
     15 C           4.6876    1.0987    0.0000 C.3     1  UNL1       -0.0589
     16 C           5.5376    1.6402    0.0000 C.3     1  UNL1        0.0164
     17 C           7.3296    0.6055    0.0000 C.2     1  UNL1       -0.0458
     18 C           4.3036   -2.2962    0.0000 C.3     1  UNL1       -0.0491
     19 C           3.3037   -2.3077    0.0000 C.2     1  UNL1        0.3110
     20 C           6.4356    2.1679    0.0000 C.2     1  UNL1        0.1597
     21 C           7.3377    1.6471    0.0000 C.2     1  UNL1       -0.0036
     22 C           8.2056    2.1438    0.0000 C.3     1  UNL1       -0.0184
     23 C           9.0697    1.6404    0.0000 C.3     1  UNL1       -0.0586
     24 C           8.2095    3.1438    0.0000 C.3     1  UNL1       -0.0586
     25 H           4.6924   -1.5213    0.0000 H       1  UNL1        0.0317
     26 H           6.0882    0.9128    0.0000 H       1  UNL1        0.0341
     27 H           4.1982    1.1031    0.0000 H       1  UNL1        0.0271
     28 H           3.4000    1.1124    0.0000 H       1  UNL1        0.0271
     29 H           5.1551   -1.8763    0.0000 H       1  UNL1        0.0269
     30 H           5.9521   -1.8763    0.0000 H       1  UNL1        0.0269
     31 H           6.6317   -1.4839    0.0000 H       1  UNL1        0.0296
     32 H           7.0302   -0.7937    0.0000 H       1  UNL1        0.0296
     33 H           2.2767   -0.8161    0.0000 H       1  UNL1        0.0276
     34 H           2.6785   -1.5058    0.0000 H       1  UNL1        0.0276
     35 H           2.6785    0.7032    0.0000 H       1  UNL1        0.0266
     36 H           2.2767    0.0134    0.0000 H       1  UNL1        0.0266
     37 H           5.3076    1.0987    0.0000 H       1  UNL1        0.0235
     38 H           4.6876    1.7187    0.0000 H       1  UNL1        0.0235
     39 H           4.0676    1.0987    0.0000 H       1  UNL1        0.0235
     40 H           5.3195    2.2206    0.0000 H       1  UNL1        0.0349
     41 H           4.9284    1.5247    0.0000 H       1  UNL1        0.0349
     42 H           7.8630    0.2893    0.0000 H       1  UNL1        0.0604
     43 H           3.7703   -2.6124    0.0000 H       1  UNL1        0.0240
     44 H           4.6198   -2.8295    0.0000 H       1  UNL1        0.0240
     45 H           4.8370   -1.9800    0.0000 H       1  UNL1        0.0240
     46 H           7.2857   -1.0213    0.0000 H       1  UNL1        0.2106
     47 H           8.7438    2.4517    0.0000 H       1  UNL1        0.0344
     48 H           2.0000   -2.8598    0.0000 H       1  UNL1        0.2951
     49 H           8.8295    3.1414    0.0000 H       1  UNL1        0.0235
     50 H           8.2119    3.7638    0.0000 H       1  UNL1        0.0235
     51 H           7.5895    3.1462    0.0000 H       1  UNL1        0.0235
     52 H           8.7576    1.1047    0.0000 H       1  UNL1        0.0235
     53 H           9.6054    1.3284    0.0000 H       1  UNL1        0.0235
     54 H           9.3818    2.1762    0.0000 H       1  UNL1        0.0235
@<TRIPOS>BOND
     1     1     9    1
     2     1    46    1
     3     2    19    1
     4     2    48    1
     5     3    19    2
     6     4    20    2
     7     5     6    1
     8     5     7    1
     9     5    10    1
    10     5    15    1
    11     6     8    1
    12     6    11    1
    13     6    25    1
    14     7     9    1
    15     7    16    1
    16     7    26    1
    17     8    13    1
    18     8    18    1
    19     8    19    1
    20     9    12    1
    21     9    17    1
    22    10    14    1
    23    10    27    1
    24    10    28    1
    25    11    12    1
    26    11    29    1
    27    11    30    1
    28    12    31    1
    29    12    32    1
    30    13    14    1
    31    13    33    1
    32    13    34    1
    33    14    35    1
    34    14    36    1
    35    15    37    1
    36    15    38    1
    37    15    39    1
    38    16    20    1
    39    16    40    1
    40    16    41    1
    41    17    21    2
    42    17    42    1
    43    18    43    1
    44    18    44    1
    45    18    45    1
    46    20    21    1
    47    21    22    1
    48    22    23    1
    49    22    24    1
    50    22    47    1
    51    23    52    1
    52    23    53    1
    53    23    54    1
    54    24    49    1
    55    24    50    1
    56    24    51    1
