@<TRIPOS>MOLECULE
IMPHY011622
 73 79 0 0 0
SMALL
GASTEIGER

@<TRIPOS>ATOM
      1 O           2.9788    5.7220    0.0000 O.3     1  UNL1       -0.4951
      2 O           8.7995   -4.9814    0.0000 O.3     1  UNL1       -0.4951
      3 N           8.2919    3.9924    0.0000 N.3     1  UNL1       -0.2931
      4 N           5.8389    2.8750    0.0000 N.ar    1  UNL1       -0.3564
      5 N           7.5610    0.5531    0.0000 N.3     1  UNL1       -0.3078
      6 N           9.8108   -1.0562    0.0000 N.ar    1  UNL1       -0.3565
      7 C           8.9465    2.0294    0.0000 C.3     1  UNL1       -0.0301
      8 C           7.6228    3.2493    0.0000 C.3     1  UNL1        0.0512
      9 C           7.9294    2.2538    0.0000 C.3     1  UNL1       -0.0284
     10 C           9.6435    2.8035    0.0000 C.3     1  UNL1       -0.0074
     11 C           9.3140    3.7916    0.0000 C.3     1  UNL1        0.0060
     12 C           9.2519    1.0771    0.0000 C.3     1  UNL1       -0.0286
     13 C           6.6446    3.4572    0.0000 C.ar    1  UNL1        0.0376
     14 C           7.9829    4.9435    0.0000 C.3     1  UNL1        0.0036
     15 C           8.5799    0.3366    0.0000 C.3     1  UNL1        0.0486
     16 C           6.3356    4.4083    0.0000 C.ar    1  UNL1       -0.0163
     17 C           7.0048    5.1514    0.0000 C.3     1  UNL1       -0.0125
     18 C          10.6225    2.5993    0.0000 C.2     1  UNL1       -0.0865
     19 C           8.8941   -0.6565    0.0000 C.ar    1  UNL1        0.0374
     20 C           5.3416    4.4057    0.0000 C.ar    1  UNL1        0.0066
     21 C           5.0352    3.4600    0.0000 C.ar    1  UNL1        0.0472
     22 C           8.2307   -1.4048    0.0000 C.ar    1  UNL1       -0.0163
     23 C           6.8700   -0.2263    0.0000 C.3     1  UNL1        0.0005
     24 C           7.2071   -1.2119    0.0000 C.3     1  UNL1       -0.0128
     25 C           8.7374   -2.2670    0.0000 C.ar    1  UNL1        0.0066
     26 C           9.7139   -2.0515    0.0000 C.ar    1  UNL1        0.0472
     27 C           4.6600    5.1852    0.0000 C.ar    1  UNL1       -0.0105
     28 C          11.2887    3.3450    0.0000 C.2     1  UNL1       -0.1023
     29 C           4.0260    3.2282    0.0000 C.ar    1  UNL1       -0.0343
     30 C           3.6457    4.9768    0.0000 C.ar    1  UNL1        0.1208
     31 C           8.4079   -3.2551    0.0000 C.ar    1  UNL1       -0.0105
     32 C           3.3266    3.9918    0.0000 C.ar    1  UNL1       -0.0180
     33 C          10.4286   -2.8093    0.0000 C.ar    1  UNL1       -0.0343
     34 C           9.1049   -4.0292    0.0000 C.ar    1  UNL1        0.1208
     35 C          10.1220   -3.8048    0.0000 C.ar    1  UNL1       -0.0180
     36 C           2.0000    5.5170    0.0000 C.3     1  UNL1        0.0788
     37 C           9.4715   -5.7220    0.0000 C.3     1  UNL1        0.0788
     38 H           9.5527    1.8993    0.0000 H       1  UNL1        0.0308
     39 H           7.0492    2.6220    0.0000 H       1  UNL1        0.0527
     40 H           7.3143    2.1754    0.0000 H       1  UNL1        0.0287
     41 H           7.9014    1.6344    0.0000 H       1  UNL1        0.0287
     42 H           9.8362    2.2142    0.0000 H       1  UNL1        0.0358
     43 H           9.9270    3.8842    0.0000 H       1  UNL1        0.0432
     44 H           9.3277    4.4114    0.0000 H       1  UNL1        0.0432
     45 H           9.6317    0.5871    0.0000 H       1  UNL1        0.0287
     46 H           9.8004    1.3661    0.0000 H       1  UNL1        0.0287
     47 H           8.5969    5.0298    0.0000 H       1  UNL1        0.0430
     48 H           8.0045    5.5631    0.0000 H       1  UNL1        0.0430
     49 H           8.3894    0.9266    0.0000 H       1  UNL1        0.0525
     50 H           7.2370    5.7263    0.0000 H       1  UNL1        0.0326
     51 H           6.4790    5.4800    0.0000 H       1  UNL1        0.0326
     52 H          10.8163    2.0104    0.0000 H       1  UNL1        0.0570
     53 H           5.8378    2.2550    0.0000 H       1  UNL1        0.1656
     54 H           7.3672    1.1421    0.0000 H       1  UNL1        0.1226
     55 H           6.4833    0.2583    0.0000 H       1  UNL1        0.0427
     56 H           6.3264   -0.5244    0.0000 H       1  UNL1        0.0427
     57 H           6.5948   -1.3092    0.0000 H       1  UNL1        0.0326
     58 H           7.1982   -1.8318    0.0000 H       1  UNL1        0.0326
     59 H          10.3453   -0.7421    0.0000 H       1  UNL1        0.1656
     60 H           4.8578    5.7728    0.0000 H       1  UNL1        0.0661
     61 H          11.8957    3.2185    0.0000 H       1  UNL1        0.0532
     62 H          11.0949    3.9340    0.0000 H       1  UNL1        0.0532
     63 H           3.8417    2.6362    0.0000 H       1  UNL1        0.0639
     64 H           7.8010   -3.3816    0.0000 H       1  UNL1        0.0661
     65 H           2.7207    3.8600    0.0000 H       1  UNL1        0.0655
     66 H          11.0325   -2.6687    0.0000 H       1  UNL1        0.0639
     67 H          10.5422   -4.2607    0.0000 H       1  UNL1        0.0655
     68 H           1.8729    6.1238    0.0000 H       1  UNL1        0.0660
     69 H           1.3932    5.3899    0.0000 H       1  UNL1        0.0660
     70 H           2.1271    4.9102    0.0000 H       1  UNL1        0.0660
     71 H           9.0124   -6.1386    0.0000 H       1  UNL1        0.0660
     72 H           9.8882   -6.1811    0.0000 H       1  UNL1        0.0660
     73 H           9.9307   -5.3053    0.0000 H       1  UNL1        0.0660
@<TRIPOS>BOND
     1     1    30    1
     2     1    36    1
     3     2    34    1
     4     2    37    1
     5     3     8    1
     6     3    11    1
     7     3    14    1
     8     4    13   ar
     9     4    21   ar
    10     4    53    1
    11     5    15    1
    12     5    23    1
    13     5    54    1
    14     6    19   ar
    15     6    26   ar
    16     6    59    1
    17     7     9    1
    18     7    10    1
    19     7    12    1
    20     7    38    1
    21     8     9    1
    22     8    13    1
    23     8    39    1
    24     9    40    1
    25     9    41    1
    26    10    11    1
    27    10    18    1
    28    10    42    1
    29    11    43    1
    30    11    44    1
    31    15    12    1
    32    12    45    1
    33    12    46    1
    34    13    16   ar
    35    14    17    1
    36    14    47    1
    37    14    48    1
    38    15    19    1
    39    15    49    1
    40    16    17    1
    41    16    20   ar
    42    17    50    1
    43    17    51    1
    44    18    28    2
    45    18    52    1
    46    19    22   ar
    47    20    21   ar
    48    20    27   ar
    49    21    29   ar
    50    22    24    1
    51    22    25   ar
    52    23    24    1
    53    23    55    1
    54    23    56    1
    55    24    57    1
    56    24    58    1
    57    25    26   ar
    58    25    31   ar
    59    26    33   ar
    60    27    30   ar
    61    27    60    1
    62    28    61    1
    63    28    62    1
    64    29    32   ar
    65    29    63    1
    66    30    32   ar
    67    31    34   ar
    68    31    64    1
    69    32    65    1
    70    33    35   ar
    71    33    66    1
    72    34    35   ar
    73    35    67    1
    74    36    68    1
    75    36    69    1
    76    36    70    1
    77    37    71    1
    78    37    72    1
    79    37    73    1
