@<TRIPOS>MOLECULE
IMPHY014149
 57 56 0 0 0
SMALL
GASTEIGER

@<TRIPOS>ATOM
      1 O          14.1244    2.2500    0.0000 O.3     1  UNL1       -0.4804
      2 O          13.2583    3.7500    0.0000 O.2     1  UNL1       -0.2507
      3 C           9.7942    2.7500    0.0000 C.3     1  UNL1       -0.0530
      4 C          10.6603    2.2500    0.0000 C.3     1  UNL1       -0.0523
      5 C           8.9282    2.2500    0.0000 C.3     1  UNL1       -0.0528
      6 C          11.5263    2.7500    0.0000 C.3     1  UNL1       -0.0404
      7 C           8.0622    2.7500    0.0000 C.3     1  UNL1       -0.0496
      8 C           3.7320   -0.7500    0.0000 C.3     1  UNL1       -0.0530
      9 C           4.5981   -0.2500    0.0000 C.3     1  UNL1       -0.0528
     10 C          12.3923    2.2500    0.0000 C.3     1  UNL1        0.0535
     11 C           3.7320   -1.7500    0.0000 C.3     1  UNL1       -0.0531
     12 C           4.5981    0.7500    0.0000 C.3     1  UNL1       -0.0496
     13 C           7.1962    2.2500    0.0000 C.3     1  UNL1       -0.0348
     14 C           2.8660   -2.2500    0.0000 C.3     1  UNL1       -0.0533
     15 C           5.4641    1.2500    0.0000 C.3     1  UNL1       -0.0348
     16 C           6.3301    2.7500    0.0000 C.2     1  UNL1       -0.0879
     17 C           2.8660   -3.2500    0.0000 C.3     1  UNL1       -0.0559
     18 C          12.3923    1.2500    0.0000 C.3     1  UNL1       -0.0523
     19 C           5.4641    2.2500    0.0000 C.2     1  UNL1       -0.0879
     20 C          13.2583    2.7500    0.0000 C.2     1  UNL1        0.3075
     21 C           2.0000   -3.7500    0.0000 C.3     1  UNL1       -0.0653
     22 H          10.1928    3.2250    0.0000 H       1  UNL1        0.0265
     23 H           9.3957    3.2250    0.0000 H       1  UNL1        0.0265
     24 H          10.2617    1.7750    0.0000 H       1  UNL1        0.0265
     25 H          11.0588    1.7750    0.0000 H       1  UNL1        0.0265
     26 H           8.5297    1.7750    0.0000 H       1  UNL1        0.0265
     27 H           9.3267    1.7750    0.0000 H       1  UNL1        0.0265
     28 H          11.9248    3.2250    0.0000 H       1  UNL1        0.0273
     29 H          11.1278    3.2250    0.0000 H       1  UNL1        0.0273
     30 H           8.4607    3.2250    0.0000 H       1  UNL1        0.0268
     31 H           7.6636    3.2250    0.0000 H       1  UNL1        0.0268
     32 H           3.5200   -0.1674    0.0000 H       1  UNL1        0.0265
     33 H           3.1215   -0.8577    0.0000 H       1  UNL1        0.0265
     34 H           4.8101   -0.8326    0.0000 H       1  UNL1        0.0265
     35 H           5.2087   -0.1423    0.0000 H       1  UNL1        0.0265
     36 H          11.8554    1.9400    0.0000 H       1  UNL1        0.0411
     37 H           3.9441   -2.3326    0.0000 H       1  UNL1        0.0265
     38 H           4.3426   -1.6423    0.0000 H       1  UNL1        0.0265
     39 H           4.3860    1.3326    0.0000 H       1  UNL1        0.0268
     40 H           3.9875    0.6423    0.0000 H       1  UNL1        0.0268
     41 H           6.7976    1.7750    0.0000 H       1  UNL1        0.0307
     42 H           7.5947    1.7750    0.0000 H       1  UNL1        0.0307
     43 H           2.6540   -1.6674    0.0000 H       1  UNL1        0.0265
     44 H           2.2554   -2.3577    0.0000 H       1  UNL1        0.0265
     45 H           5.6762    0.6674    0.0000 H       1  UNL1        0.0307
     46 H           6.0747    1.3577    0.0000 H       1  UNL1        0.0307
     47 H           6.3301    3.3700    0.0000 H       1  UNL1        0.0569
     48 H           3.0781   -3.8326    0.0000 H       1  UNL1        0.0263
     49 H           3.4766   -3.1423    0.0000 H       1  UNL1        0.0263
     50 H          11.7723    1.2500    0.0000 H       1  UNL1        0.0238
     51 H          12.3923    0.6300    0.0000 H       1  UNL1        0.0238
     52 H          13.0123    1.2500    0.0000 H       1  UNL1        0.0238
     53 H           4.9272    2.5600    0.0000 H       1  UNL1        0.0569
     54 H           1.6900   -3.2131    0.0000 H       1  UNL1        0.0230
     55 H           1.4631   -4.0600    0.0000 H       1  UNL1        0.0230
     56 H           2.3100   -4.2869    0.0000 H       1  UNL1        0.0230
     57 H          14.6613    2.5600    0.0000 H       1  UNL1        0.2951
@<TRIPOS>BOND
     1     1    20    1
     2     1    57    1
     3     2    20    2
     4     3     4    1
     5     3     5    1
     6     3    22    1
     7     3    23    1
     8     4     6    1
     9     4    24    1
    10     4    25    1
    11     5     7    1
    12     5    26    1
    13     5    27    1
    14     6    10    1
    15     6    28    1
    16     6    29    1
    17     7    13    1
    18     7    30    1
    19     7    31    1
    20     8     9    1
    21     8    11    1
    22     8    32    1
    23     8    33    1
    24     9    12    1
    25     9    34    1
    26     9    35    1
    27    10    18    1
    28    10    20    1
    29    10    36    1
    30    11    14    1
    31    11    37    1
    32    11    38    1
    33    12    15    1
    34    12    39    1
    35    12    40    1
    36    13    16    1
    37    13    41    1
    38    13    42    1
    39    14    17    1
    40    14    43    1
    41    14    44    1
    42    15    19    1
    43    15    45    1
    44    15    46    1
    45    16    19    2
    46    16    47    1
    47    17    21    1
    48    17    48    1
    49    17    49    1
    50    18    50    1
    51    18    51    1
    52    18    52    1
    53    19    53    1
    54    21    54    1
    55    21    55    1
    56    21    56    1
