@<TRIPOS>MOLECULE
IMPHY004573
 35 36 0 0 0
SMALL
GASTEIGER

@<TRIPOS>ATOM
      1 O           2.0000   -3.4050    0.0000 O.3     1  UNL1       -0.4950
      2 O           5.4641   -3.4050    0.0000 O.3     1  UNL1       -0.4950
      3 O           4.5981    4.0950    0.0000 O.3     1  UNL1       -0.5068
      4 C           3.7320   -1.4050    0.0000 C.ar    1  UNL1       -0.0181
      5 C           4.5981   -1.9050    0.0000 C.ar    1  UNL1       -0.0126
      6 C           2.8660   -1.9050    0.0000 C.ar    1  UNL1       -0.0126
      7 C           2.8660   -2.9050    0.0000 C.ar    1  UNL1        0.1241
      8 C           4.5981   -2.9050    0.0000 C.ar    1  UNL1        0.1241
      9 C           3.7320   -0.4050    0.0000 C.2     1  UNL1       -0.0538
     10 C           4.5981    1.0950    0.0000 C.ar    1  UNL1       -0.0248
     11 C           3.7320   -3.4050    0.0000 C.ar    1  UNL1        0.0218
     12 C           4.5981    0.0950    0.0000 C.2     1  UNL1       -0.0540
     13 C           3.7320    1.5950    0.0000 C.ar    1  UNL1       -0.0511
     14 C           5.4641    1.5950    0.0000 C.ar    1  UNL1       -0.0511
     15 C           3.7320    2.5950    0.0000 C.ar    1  UNL1       -0.0196
     16 C           5.4641    2.5950    0.0000 C.ar    1  UNL1       -0.0196
     17 C           4.5981    3.0950    0.0000 C.ar    1  UNL1        0.1169
     18 C           2.0000   -4.4050    0.0000 C.3     1  UNL1        0.0788
     19 C           5.4641   -4.4050    0.0000 C.3     1  UNL1        0.0788
     20 H           5.1350   -1.5950    0.0000 H       1  UNL1        0.0660
     21 H           2.3291   -1.5950    0.0000 H       1  UNL1        0.0660
     22 H           3.1951   -0.0950    0.0000 H       1  UNL1        0.0624
     23 H           3.7320   -4.0250    0.0000 H       1  UNL1        0.0691
     24 H           5.1350   -0.2150    0.0000 H       1  UNL1        0.0624
     25 H           3.1951    1.2850    0.0000 H       1  UNL1        0.0625
     26 H           6.0010    1.2850    0.0000 H       1  UNL1        0.0625
     27 H           3.1951    2.9050    0.0000 H       1  UNL1        0.0654
     28 H           6.0010    2.9050    0.0000 H       1  UNL1        0.0654
     29 H           1.3800   -4.4050    0.0000 H       1  UNL1        0.0660
     30 H           2.0000   -5.0250    0.0000 H       1  UNL1        0.0660
     31 H           2.6200   -4.4050    0.0000 H       1  UNL1        0.0660
     32 H           4.8441   -4.4050    0.0000 H       1  UNL1        0.0660
     33 H           5.4641   -5.0250    0.0000 H       1  UNL1        0.0660
     34 H           6.0841   -4.4050    0.0000 H       1  UNL1        0.0660
     35 H           5.1350    4.4050    0.0000 H       1  UNL1        0.2921
@<TRIPOS>BOND
     1     1     7    1
     2     1    18    1
     3     2     8    1
     4     2    19    1
     5     3    17    1
     6     3    35    1
     7     4     5   ar
     8     4     6   ar
     9     4     9    1
    10     5     8   ar
    11     5    20    1
    12     6     7   ar
    13     6    21    1
    14     7    11   ar
    15     8    11   ar
    16     9    12    2
    17     9    22    1
    18    10    12    1
    19    10    13   ar
    20    10    14   ar
    21    11    23    1
    22    12    24    1
    23    13    15   ar
    24    13    25    1
    25    14    16   ar
    26    14    26    1
    27    15    17   ar
    28    15    27    1
    29    16    17   ar
    30    16    28    1
    31    18    29    1
    32    18    30    1
    33    18    31    1
    34    19    32    1
    35    19    33    1
    36    19    34    1
