@<TRIPOS>MOLECULE
IMPHY008841
 24 27 0 0 0
SMALL
GASTEIGER

@<TRIPOS>ATOM
      1 O           5.7796   -3.3355    0.0000 O.3     1  UNL1       -0.3302
      2 O           3.4090   -4.7046    0.0000 O.3     1  UNL1       -0.3302
      3 O           6.9650   -4.0246    0.0000 O.3     1  UNL1       -0.1927
      4 O           2.2236   -4.0246    0.0000 O.3     1  UNL1       -0.1927
      5 C           4.5943   -2.6555    0.0000 C.3     1  UNL1        0.1446
      6 C           4.5943   -5.3845    0.0000 C.3     1  UNL1        0.1446
      7 C           5.7796   -4.7046    0.0000 C.3     1  UNL1        0.2420
      8 C           3.4090   -3.3355    0.0000 C.3     1  UNL1        0.2420
      9 C           4.0981   -3.5192    0.0000 C.3     1  UNL1        0.0348
     10 C           4.0981   -4.5208    0.0000 C.3     1  UNL1        0.0348
     11 C           4.5943   -1.2864    0.0000 C.3     1  UNL1        0.0326
     12 C           4.5943   -6.7536    0.0000 C.3     1  UNL1        0.0326
     13 C           6.9650   -5.3845    0.0000 C.3     1  UNL1        0.0656
     14 C           2.2236   -2.6555    0.0000 C.3     1  UNL1        0.0656
     15 C           6.9650   -6.7536    0.0000 C.3     1  UNL1        0.0234
     16 C           2.2236   -1.2864    0.0000 C.3     1  UNL1        0.0234
     17 C           3.4090   -0.5973    0.0000 C.3     1  UNL1        0.0068
     18 C           5.7796   -7.4428    0.0000 C.3     1  UNL1        0.0068
     19 C           8.3065   -6.5147    0.0000 C.2     1  UNL1       -0.0441
     20 C           0.8821   -1.5253    0.0000 C.2     1  UNL1       -0.0441
     21 C           9.1886   -7.5622    0.0000 C.3     1  UNL1        0.0263
     22 C           0.0000   -0.4778    0.0000 C.3     1  UNL1        0.0263
     23 C           8.7751   -5.2283    0.0000 C.2     1  UNL1       -0.0091
     24 C           0.4135   -2.8117    0.0000 C.2     1  UNL1       -0.0091
@<TRIPOS>BOND
     1     1     7    1
     2     2     8    1
     3     5     1    1
     4     5     8    1
     5     5     9    1
     6     5    11    1
     7     6     2    1
     8     6     7    1
     9     6    10    1
    10     6    12    1
    11     7     3    1
    12     7    13    1
    13     8     4    1
    14     8    14    1
    15     9    10    1
    16    11    17    1
    17    12    18    1
    18    13    15    1
    19    14    16    1
    20    15    18    1
    21    15    19    1
    22    16    17    1
    23    16    20    1
    24    19    21    1
    25    19    23    2
    26    20    22    1
    27    20    24    2
