@<TRIPOS>MOLECULE
IMPHY012208
 78 81 0 0 0
SMALL
GASTEIGER

@<TRIPOS>ATOM
      1 O           9.3057    6.2134    0.0000 O.3     1  UNL1       -0.4914
      2 O          11.0796    5.1892    0.0000 O.3     1  UNL1       -0.4914
      3 O           1.4092    4.6760    0.0000 O.3     1  UNL1       -0.4914
      4 O           1.3938    6.6760    0.0000 O.3     1  UNL1       -0.5033
      5 O           4.9407   10.8383    0.0000 O.3     2  UNL2       -0.4726
      6 O           7.5388   10.3383    0.0000 O.3     2  UNL2       -0.4726
      7 O           5.8067    9.3383    0.0000 O.2     2  UNL2       -0.2378
      8 O           6.6727   11.8383    0.0000 O.2     2  UNL2       -0.2378
      9 N           7.5616    2.1441    0.0000 N.3     1  UNL1       -0.2948
     10 N           5.8034    5.1891    0.0000 N.2     1  UNL1       -0.2873
     11 C           5.7616    3.1650    0.0000 C.3     1  UNL1       -0.0299
     12 C           5.7616    2.1233    0.0000 C.3     1  UNL1       -0.0252
     13 C           7.5616    3.1441    0.0000 C.3     1  UNL1        0.0363
     14 C           6.6676    3.6788    0.0000 C.3     1  UNL1       -0.0297
     15 C           6.6676    1.6095    0.0000 C.3     1  UNL1        0.0026
     16 C           8.4276    1.6441    0.0000 C.3     1  UNL1        0.0035
     17 C           4.8975    3.6683    0.0000 C.3     1  UNL1       -0.0071
     18 C           8.4276    3.6441    0.0000 C.ar    1  UNL1       -0.0234
     19 C           4.8975    1.6200    0.0000 C.3     1  UNL1       -0.0516
     20 C           9.2936    2.1441    0.0000 C.3     1  UNL1       -0.0144
     21 C           9.2936    3.1441    0.0000 C.ar    1  UNL1       -0.0378
     22 C           4.9014    4.6683    0.0000 C.2     1  UNL1        0.0436
     23 C           8.4116    4.6856    0.0000 C.ar    1  UNL1       -0.0114
     24 C           4.9014    0.6200    0.0000 C.3     1  UNL1       -0.0650
     25 C          10.2036    3.6510    0.0000 C.ar    1  UNL1       -0.0128
     26 C           4.0033    5.1960    0.0000 C.ar    1  UNL1        0.0027
     27 C           9.3096    5.2134    0.0000 C.ar    1  UNL1        0.1618
     28 C          10.2117    4.6926    0.0000 C.ar    1  UNL1        0.1618
     29 C           3.9956    6.1960    0.0000 C.ar    1  UNL1       -0.0331
     30 C           5.7954    6.2307    0.0000 C.3     1  UNL1        0.0440
     31 C           4.8854    6.7375    0.0000 C.3     1  UNL1       -0.0074
     32 C           3.1412    4.6894    0.0000 C.ar    1  UNL1       -0.0072
     33 C           3.1258    6.6893    0.0000 C.ar    1  UNL1       -0.0127
     34 C           2.2713    5.1827    0.0000 C.ar    1  UNL1        0.1619
     35 C           2.2636    6.1826    0.0000 C.ar    1  UNL1        0.1587
     36 C          10.1698    6.7167    0.0000 C.3     1  UNL1        0.0790
     37 C          11.9437    4.6859    0.0000 C.3     1  UNL1        0.0790
     38 C           0.5393    5.1693    0.0000 C.3     1  UNL1        0.0790
     39 C           5.8067   10.3383    0.0000 C.2     2  UNL2        0.4148
     40 C           6.6727   10.8383    0.0000 C.2     2  UNL2        0.4148
     41 H           5.7652    3.7849    0.0000 H       1  UNL1        0.0308
     42 H           5.7652    1.5033    0.0000 H       1  UNL1        0.0316
     43 H           7.5681    3.9941    0.0000 H       1  UNL1        0.0512
     44 H           7.0722    4.1486    0.0000 H       1  UNL1        0.0286
     45 H           6.2740    4.1578    0.0000 H       1  UNL1        0.0286
     46 H           6.2740    1.1305    0.0000 H       1  UNL1        0.0429
     47 H           7.0722    1.1397    0.0000 H       1  UNL1        0.0429
     48 H           8.0291    1.1692    0.0000 H       1  UNL1        0.0430
     49 H           8.8262    1.1692    0.0000 H       1  UNL1        0.0430
     50 H           4.2873    3.7783    0.0000 H       1  UNL1        0.0331
     51 H           4.6832    3.0865    0.0000 H       1  UNL1        0.0331
     52 H           4.6832    2.2018    0.0000 H       1  UNL1        0.0266
     53 H           4.2873    1.5100    0.0000 H       1  UNL1        0.0266
     54 H           9.5057    1.5615    0.0000 H       1  UNL1        0.0326
     55 H           9.9042    2.2518    0.0000 H       1  UNL1        0.0326
     56 H           7.8711    4.9894    0.0000 H       1  UNL1        0.0659
     57 H           4.2814    0.6176    0.0000 H       1  UNL1        0.0230
     58 H           4.9037    0.0000    0.0000 H       1  UNL1        0.0230
     59 H           5.5213    0.6224    0.0000 H       1  UNL1        0.0230
     60 H          10.7370    3.3348    0.0000 H       1  UNL1        0.0658
     61 H           6.4070    6.1293    0.0000 H       1  UNL1        0.0511
     62 H           5.9999    6.8160    0.0000 H       1  UNL1        0.0511
     63 H           5.2753    7.2196    0.0000 H       1  UNL1        0.0331
     64 H           4.4772    7.2042    0.0000 H       1  UNL1        0.0331
     65 H           3.1459    4.0694    0.0000 H       1  UNL1        0.0662
     66 H           3.1210    7.3093    0.0000 H       1  UNL1        0.0658
     67 H          10.4819    6.1810    0.0000 H       1  UNL1        0.0660
     68 H          10.7056    7.0288    0.0000 H       1  UNL1        0.0660
     69 H           9.8578    7.2525    0.0000 H       1  UNL1        0.0660
     70 H          11.6316    4.1502    0.0000 H       1  UNL1        0.0660
     71 H          12.4794    4.3738    0.0000 H       1  UNL1        0.0660
     72 H          12.2558    5.2216    0.0000 H       1  UNL1        0.0660
     73 H           1.3890    7.2959    0.0000 H       1  UNL1        0.2923
     74 H           0.8452    5.7086    0.0000 H       1  UNL1        0.0660
     75 H           0.0000    5.4752    0.0000 H       1  UNL1        0.0660
     76 H           0.2335    4.6300    0.0000 H       1  UNL1        0.0660
     77 H           4.4037   10.5283    0.0000 H       2  UNL2        0.2956
     78 H           8.0757   10.6483    0.0000 H       2  UNL2        0.2956
@<TRIPOS>BOND
     1     1    27    1
     2     1    36    1
     3     2    28    1
     4     2    37    1
     5     3    34    1
     6     3    38    1
     7     4    35    1
     8     4    73    1
     9     5    39    1
    10     5    77    1
    11     6    40    1
    12     6    78    1
    13     7    39    2
    14     8    40    2
    15     9    13    1
    16     9    15    1
    17     9    16    1
    18    10    22    2
    19    10    30    1
    20    11    12    1
    21    11    14    1
    22    11    17    1
    23    11    41    1
    24    12    15    1
    25    12    19    1
    26    12    42    1
    27    13    14    1
    28    13    18    1
    29    13    43    1
    30    14    44    1
    31    14    45    1
    32    15    46    1
    33    15    47    1
    34    16    20    1
    35    16    48    1
    36    16    49    1
    37    17    22    1
    38    17    50    1
    39    17    51    1
    40    18    21   ar
    41    18    23   ar
    42    19    24    1
    43    19    52    1
    44    19    53    1
    45    20    21    1
    46    20    54    1
    47    20    55    1
    48    21    25   ar
    49    22    26    1
    50    23    27   ar
    51    23    56    1
    52    24    57    1
    53    24    58    1
    54    24    59    1
    55    25    28   ar
    56    25    60    1
    57    26    29   ar
    58    26    32   ar
    59    27    28   ar
    60    29    31    1
    61    29    33   ar
    62    30    31    1
    63    30    61    1
    64    30    62    1
    65    31    63    1
    66    31    64    1
    67    32    34   ar
    68    32    65    1
    69    33    35   ar
    70    33    66    1
    71    34    35   ar
    72    36    67    1
    73    36    68    1
    74    36    69    1
    75    37    70    1
    76    37    71    1
    77    37    72    1
    78    38    74    1
    79    38    75    1
    80    38    76    1
    81    39    40    1
