@<TRIPOS>MOLECULE
IMPHY016024
 27 28 0 0 0
SMALL
GASTEIGER

@<TRIPOS>ATOM
      1 O           2.4750   -0.6902    0.0000 O.3     1  UNL1       -0.3875
      2 C           6.8636   -0.0329    0.0000 C.3     1  UNL1       -0.0254
      3 C           5.7235    0.9242    0.0000 C.3     1  UNL1       -0.0321
      4 C           5.4647   -0.0417    0.0000 C.3     1  UNL1       -0.0121
      5 C           4.9869    1.9068    0.0000 C.3     1  UNL1       -0.0425
      6 C           3.6903    0.6130    0.0000 C.3     1  UNL1       -0.0196
      7 C           4.2437   -0.9074    0.0000 C.2     1  UNL1       -0.0449
      8 C           3.4146   -0.3482    0.0000 C.3     1  UNL1        0.0766
      9 C           7.3636   -0.8990    0.0000 C.3     1  UNL1       -0.0590
     10 C           7.7297    0.4671    0.0000 C.3     1  UNL1       -0.0590
     11 C           4.2786   -1.9068    0.0000 C.2     1  UNL1       -0.0967
     12 H           6.1738    1.3504    0.0000 H       1  UNL1        0.0307
     13 H           5.6547   -0.6319    0.0000 H       1  UNL1        0.0352
     14 H           5.3047    2.4392    0.0000 H       1  UNL1        0.0274
     15 H           4.3738    1.9988    0.0000 H       1  UNL1        0.0274
     16 H           3.6852    1.2330    0.0000 H       1  UNL1        0.0296
     17 H           3.0760    0.6968    0.0000 H       1  UNL1        0.0296
     18 H           2.9612    0.0746    0.0000 H       1  UNL1        0.0640
     19 H           6.8267   -1.2090    0.0000 H       1  UNL1        0.0235
     20 H           7.6736   -1.4359    0.0000 H       1  UNL1        0.0235
     21 H           7.9006   -0.5890    0.0000 H       1  UNL1        0.0235
     22 H           8.0397   -0.0699    0.0000 H       1  UNL1        0.0235
     23 H           8.2666    0.7771    0.0000 H       1  UNL1        0.0235
     24 H           7.4197    1.0040    0.0000 H       1  UNL1        0.0235
     25 H           3.7528   -2.2354    0.0000 H       1  UNL1        0.0535
     26 H           4.8260   -2.1979    0.0000 H       1  UNL1        0.0535
     27 H           2.0000   -0.2917    0.0000 H       1  UNL1        0.2102
@<TRIPOS>BOND
     1     1     8    1
     2     1    27    1
     3     2     3    1
     4     2     4    1
     5     2     9    1
     6     2    10    1
     7     3     5    1
     8     3     6    1
     9     3    12    1
    10     4     5    1
    11     4     7    1
    12     4    13    1
    13     5    14    1
    14     5    15    1
    15     6     8    1
    16     6    16    1
    17     6    17    1
    18     7     8    1
    19     7    11    2
    20     8    18    1
    21     9    19    1
    22     9    20    1
    23     9    21    1
    24    10    22    1
    25    10    23    1
    26    10    24    1
    27    11    25    1
    28    11    26    1
