@<TRIPOS>MOLECULE
IMPHY011980
 42 42 0 0 0
SMALL
GASTEIGER

@<TRIPOS>ATOM
      1 O           2.4149    0.4579    0.0000 O.3     1  UNL1       -0.3848
      2 C           5.9911    0.7500    0.0000 C.3     1  UNL1       -0.0202
      3 C           5.9911    1.7500    0.0000 C.3     1  UNL1       -0.0404
      4 C           6.8571    0.2500    0.0000 C.3     1  UNL1       -0.0428
      5 C           3.3930    0.2500    0.0000 C.3     1  UNL1        0.0816
      6 C           6.8571   -0.7500    0.0000 C.3     1  UNL1       -0.0315
      7 C           5.1251    0.2500    0.0000 C.2     1  UNL1       -0.0819
      8 C           3.3930   -0.7500    0.0000 C.3     1  UNL1       -0.0172
      9 C           4.2590    0.7500    0.0000 C.2     1  UNL1       -0.0568
     10 C           4.2590   -1.2500    0.0000 C.3     1  UNL1       -0.0316
     11 C           5.9911   -1.2500    0.0000 C.2     1  UNL1       -0.0765
     12 C           6.8571    2.2500    0.0000 C.3     1  UNL1       -0.0621
     13 C           5.1251    2.2500    0.0000 C.3     1  UNL1       -0.0621
     14 C           5.1251   -0.7500    0.0000 C.2     1  UNL1       -0.0849
     15 C           2.7239    0.9931    0.0000 C.3     1  UNL1       -0.0324
     16 C           5.9911   -2.2500    0.0000 C.3     1  UNL1       -0.0438
     17 H           5.4542    1.0600    0.0000 H       1  UNL1        0.0346
     18 H           6.5280    1.4400    0.0000 H       1  UNL1        0.0301
     19 H           7.4677    0.1423    0.0000 H       1  UNL1        0.0274
     20 H           7.0692    0.8326    0.0000 H       1  UNL1        0.0274
     21 H           7.0692   -1.3326    0.0000 H       1  UNL1        0.0310
     22 H           7.4677   -0.6423    0.0000 H       1  UNL1        0.0310
     23 H           4.7267   -0.2251    0.0000 H       1  UNL1        0.0573
     24 H           2.7824   -0.6423    0.0000 H       1  UNL1        0.0299
     25 H           3.1810   -1.3326    0.0000 H       1  UNL1        0.0299
     26 H           4.2590    1.3700    0.0000 H       1  UNL1        0.0597
     27 H           3.8605   -1.7250    0.0000 H       1  UNL1        0.0308
     28 H           4.6576   -1.7250    0.0000 H       1  UNL1        0.0308
     29 H           7.1671    1.7131    0.0000 H       1  UNL1        0.0233
     30 H           7.3940    2.5600    0.0000 H       1  UNL1        0.0233
     31 H           6.5471    2.7869    0.0000 H       1  UNL1        0.0233
     32 H           5.4351    2.7869    0.0000 H       1  UNL1        0.0233
     33 H           4.5881    2.5600    0.0000 H       1  UNL1        0.0233
     34 H           4.8151    1.7131    0.0000 H       1  UNL1        0.0233
     35 H           5.5236   -0.2751    0.0000 H       1  UNL1        0.0572
     36 H           3.1846    1.4080    0.0000 H       1  UNL1        0.0260
     37 H           2.3090    1.4539    0.0000 H       1  UNL1        0.0260
     38 H           2.2631    0.5783    0.0000 H       1  UNL1        0.0260
     39 H           5.3711   -2.2500    0.0000 H       1  UNL1        0.0274
     40 H           5.9911   -2.8700    0.0000 H       1  UNL1        0.0274
     41 H           6.6111   -2.2500    0.0000 H       1  UNL1        0.0274
     42 H           2.0000   -0.0028    0.0000 H       1  UNL1        0.2106
@<TRIPOS>BOND
     1     5     1    1
     2     1    42    1
     3     2     3    1
     4     2     4    1
     5     2     7    1
     6     2    17    1
     7     3    12    1
     8     3    13    1
     9     3    18    1
    10     4     6    1
    11     4    19    1
    12     4    20    1
    13     5     8    1
    14     5     9    1
    15     5    15    1
    16     6    11    1
    17     6    21    1
    18     6    22    1
    19     7     9    2
    20     7    23    1
    21     8    10    1
    22     8    24    1
    23     8    25    1
    24     9    26    1
    25    10    14    1
    26    10    27    1
    27    10    28    1
    28    11    14    2
    29    11    16    1
    30    12    29    1
    31    12    30    1
    32    12    31    1
    33    13    32    1
    34    13    33    1
    35    13    34    1
    36    14    35    1
    37    15    36    1
    38    15    37    1
    39    15    38    1
    40    16    39    1
    41    16    40    1
    42    16    41    1
