@<TRIPOS>MOLECULE
IMPHY012640
 39 41 0 0 0
SMALL
GASTEIGER

@<TRIPOS>ATOM
      1 O           6.0682   -2.2327    0.0000 O.3     1  UNL1       -0.4910
      2 O           6.9343    1.2673    0.0000 O.3     1  UNL1       -0.4947
      3 O          10.3984    1.2673    0.0000 O.3     1  UNL1       -0.4950
      4 O           2.5381   -2.2568    0.0000 O.3     1  UNL1       -0.5066
      5 C           6.9343   -0.7327    0.0000 C.3     1  UNL1        0.0258
      6 C           6.0682   -0.2327    0.0000 C.3     1  UNL1       -0.0142
      7 C           6.9343   -1.7327    0.0000 C.3     1  UNL1        0.0968
      8 C           7.8003   -0.2327    0.0000 C.ar    1  UNL1        0.0011
      9 C           5.2022   -0.7327    0.0000 C.ar    1  UNL1       -0.0048
     10 C           5.2022   -1.7327    0.0000 C.ar    1  UNL1        0.1272
     11 C           7.8003    0.7673    0.0000 C.ar    1  UNL1        0.1271
     12 C           8.6663   -0.7327    0.0000 C.ar    1  UNL1       -0.0513
     13 C           4.3083   -0.1980    0.0000 C.ar    1  UNL1       -0.0516
     14 C           4.3083   -2.2673    0.0000 C.ar    1  UNL1        0.0218
     15 C           8.6663    1.2673    0.0000 C.ar    1  UNL1        0.0220
     16 C           3.4022   -0.7119    0.0000 C.ar    1  UNL1       -0.0197
     17 C           9.5323   -0.2327    0.0000 C.ar    1  UNL1       -0.0195
     18 C           3.4022   -1.7535    0.0000 C.ar    1  UNL1        0.1203
     19 C           9.5323    0.7673    0.0000 C.ar    1  UNL1        0.1236
     20 C           6.9343    2.2673    0.0000 C.3     1  UNL1        0.0788
     21 C          11.2644    0.7673    0.0000 C.3     1  UNL1        0.0788
     22 H           6.9343   -0.1127    0.0000 H       1  UNL1        0.0386
     23 H           6.4668    0.2423    0.0000 H       1  UNL1        0.0321
     24 H           5.6697    0.2423    0.0000 H       1  UNL1        0.0321
     25 H           7.1463   -2.3153    0.0000 H       1  UNL1        0.0703
     26 H           7.5449   -1.6250    0.0000 H       1  UNL1        0.0703
     27 H           8.6663   -1.3527    0.0000 H       1  UNL1        0.0623
     28 H           4.3154    0.4220    0.0000 H       1  UNL1        0.0623
     29 H           4.3154   -2.8873    0.0000 H       1  UNL1        0.0691
     30 H           8.6663    1.8873    0.0000 H       1  UNL1        0.0691
     31 H          10.0693   -0.5427    0.0000 H       1  UNL1        0.0654
     32 H           2.8665   -0.3998    0.0000 H       1  UNL1        0.0654
     33 H           7.5543    2.2673    0.0000 H       1  UNL1        0.0660
     34 H           6.9343    2.8873    0.0000 H       1  UNL1        0.0660
     35 H           6.3143    2.2673    0.0000 H       1  UNL1        0.0660
     36 H           2.0000   -1.9489    0.0000 H       1  UNL1        0.2921
     37 H          10.9544    0.2304    0.0000 H       1  UNL1        0.0660
     38 H          11.8013    0.4573    0.0000 H       1  UNL1        0.0660
     39 H          11.5744    1.3043    0.0000 H       1  UNL1        0.0660
@<TRIPOS>BOND
     1     1     7    1
     2     1    10    1
     3     2    11    1
     4     2    20    1
     5     3    19    1
     6     3    21    1
     7     4    18    1
     8     4    36    1
     9     5     6    1
    10     5     7    1
    11     5     8    1
    12     5    22    1
    13     6     9    1
    14     6    23    1
    15     6    24    1
    16     7    25    1
    17     7    26    1
    18     8    11   ar
    19     8    12   ar
    20     9    10   ar
    21     9    13   ar
    22    10    14   ar
    23    11    15   ar
    24    12    17   ar
    25    12    27    1
    26    13    16   ar
    27    13    28    1
    28    14    18   ar
    29    14    29    1
    30    15    19   ar
    31    15    30    1
    32    16    18   ar
    33    16    32    1
    34    17    19   ar
    35    17    31    1
    36    20    33    1
    37    20    34    1
    38    20    35    1
    39    21    37    1
    40    21    38    1
    41    21    39    1
