@<TRIPOS>MOLECULE
IMPHY004091
 31 32 0 0 0
SMALL
GASTEIGER

@<TRIPOS>ATOM
      1 S           7.2566    2.0646    0.0000 S.3     1  UNL1       -0.1062
      2 S           5.6103    2.6027    0.0000 S.2     1  UNL1       -0.0282
      3 O           4.9889   -2.8089    0.0000 O.3     1  UNL1       -0.4147
      4 N           4.6783   -1.8584    0.0000 N.ar    1  UNL1       -0.1895
      5 N           5.9674    0.9078    0.0000 N.am    1  UNL1       -0.3288
      6 C           3.7320   -0.5536    0.0000 C.ar    1  UNL1        0.0079
      7 C           4.6783   -0.2489    0.0000 C.ar    1  UNL1       -0.0018
      8 C           3.7320   -1.5536    0.0000 C.ar    1  UNL1        0.0876
      9 C           5.2619   -1.0536    0.0000 C.ar    1  UNL1        0.0499
     10 C           4.9889    0.7016    0.0000 C.3     1  UNL1        0.0374
     11 C           2.8660   -0.0536    0.0000 C.ar    1  UNL1       -0.0522
     12 C           2.8660   -2.0536    0.0000 C.ar    1  UNL1       -0.0343
     13 C           2.0000   -0.5536    0.0000 C.ar    1  UNL1       -0.0611
     14 C           2.0000   -1.5536    0.0000 C.ar    1  UNL1       -0.0597
     15 C           6.2781    1.8584    0.0000 C.2     1  UNL1        0.1066
     16 C           5.9674   -3.0151    0.0000 C.3     1  UNL1        0.1052
     17 C           7.5673    3.0151    0.0000 C.3     1  UNL1       -0.0118
     18 H           5.8819   -1.0536    0.0000 H       1  UNL1        0.0847
     19 H           4.9684    1.3213    0.0000 H       1  UNL1        0.0512
     20 H           4.3751    0.7890    0.0000 H       1  UNL1        0.0512
     21 H           2.8660    0.5664    0.0000 H       1  UNL1        0.0624
     22 H           2.8660   -2.6736    0.0000 H       1  UNL1        0.0639
     23 H           1.4631   -0.2436    0.0000 H       1  UNL1        0.0618
     24 H           1.4631   -1.8636    0.0000 H       1  UNL1        0.0618
     25 H           6.3815    0.4464    0.0000 H       1  UNL1        0.1474
     26 H           5.8396   -3.6218    0.0000 H       1  UNL1        0.0686
     27 H           6.5741   -3.1430    0.0000 H       1  UNL1        0.0686
     28 H           6.0953   -2.4084    0.0000 H       1  UNL1        0.0686
     29 H           8.1566    2.8225    0.0000 H       1  UNL1        0.0344
     30 H           7.7599    3.6044    0.0000 H       1  UNL1        0.0344
     31 H           6.9780    3.2077    0.0000 H       1  UNL1        0.0344
@<TRIPOS>BOND
     1     1    15    1
     2     1    17    1
     3     2    15    2
     4     3     4    1
     5     3    16    1
     6     4     8   ar
     7     4     9   ar
     8     5    10    1
     9     5    15    1
    10     5    25    1
    11     6     7   ar
    12     6     8   ar
    13     6    11   ar
    14     7     9   ar
    15     7    10    1
    16     8    12   ar
    17     9    18    1
    18    10    19    1
    19    10    20    1
    20    11    13   ar
    21    11    21    1
    22    12    14   ar
    23    12    22    1
    24    13    14   ar
    25    13    23    1
    26    14    24    1
    27    16    26    1
    28    16    27    1
    29    16    28    1
    30    17    29    1
    31    17    30    1
    32    17    31    1
