@<TRIPOS>MOLECULE
IMPHY009555
 77 79 0 0 0
SMALL
GASTEIGER

@<TRIPOS>ATOM
      1 O           6.5180    1.7484    0.0000 O.3     1  UNL1       -0.3628
      2 O           5.3100   -1.4234    0.0000 O.3     1  UNL1       -0.3628
      3 O           4.3703    0.6507    0.0000 O.3     1  UNL1       -0.3802
      4 O           7.3630   -1.3602    0.0000 O.3     1  UNL1       -0.3628
      5 O           6.5917    0.9064    0.0000 O.3     1  UNL1       -0.3806
      6 O           3.9199    1.2484    0.0000 O.3     1  UNL1       -0.3865
      7 O           2.9439   -0.0573    0.0000 O.3     1  UNL1       -0.3865
      8 O           7.7817    1.2522    0.0000 O.3     1  UNL1       -0.3865
      9 O           6.5504   -1.7391    0.0000 O.3     1  UNL1       -0.3920
     10 O           3.9199    3.2484    0.0000 O.3     1  UNL1       -0.3865
     11 O           2.3100   -1.4234    0.0000 O.3     1  UNL1       -0.3865
     12 O           9.6611    0.5682    0.0000 O.3     1  UNL1       -0.3865
     13 O           5.6520    4.2484    0.0000 O.3     1  UNL1       -0.3865
     14 O           3.3101   -3.1555    0.0000 O.3     1  UNL1       -0.3865
     15 O          10.0084   -1.4014    0.0000 O.3     1  UNL1       -0.3865
     16 O           8.2500    2.7484    0.0000 O.3     1  UNL1       -0.3924
     17 O           4.8100   -4.0214    0.0000 O.3     1  UNL1       -0.3924
     18 O           9.4160   -3.0290    0.0000 O.3     1  UNL1       -0.3924
     19 C           5.3101    0.3086    0.0000 C.3     1  UNL1        0.1560
     20 C           6.2496   -0.0333    0.0000 C.3     1  UNL1        0.1508
     21 C           5.6520    1.2484    0.0000 C.3     1  UNL1        0.1215
     22 C           4.8101   -0.5574    0.0000 C.3     1  UNL1        0.1215
     23 C           7.1893   -0.3754    0.0000 C.3     1  UNL1        0.1212
     24 C           4.7860    1.7484    0.0000 C.3     1  UNL1        0.1125
     25 C           3.8100   -0.5574    0.0000 C.3     1  UNL1        0.1125
     26 C           7.9554    0.2674    0.0000 C.3     1  UNL1        0.1125
     27 C           5.9076   -0.9730    0.0000 C.3     1  UNL1        0.0784
     28 C           4.7860    2.7484    0.0000 C.3     1  UNL1        0.1118
     29 C           3.3100   -1.4234    0.0000 C.3     1  UNL1        0.1118
     30 C           6.5180    2.7484    0.0000 C.3     1  UNL1        0.1105
     31 C           4.8101   -2.2894    0.0000 C.3     1  UNL1        0.1105
     32 C           8.8951   -0.0746    0.0000 C.3     1  UNL1        0.1118
     33 C           5.6520    3.2484    0.0000 C.3     1  UNL1        0.1117
     34 C           3.8101   -2.2895    0.0000 C.3     1  UNL1        0.1117
     35 C           8.3027   -1.7022    0.0000 C.3     1  UNL1        0.1105
     36 C           9.0687   -1.0594    0.0000 C.3     1  UNL1        0.1117
     37 C           7.3840    3.2484    0.0000 C.3     1  UNL1        0.0729
     38 C           5.3100   -3.1554    0.0000 C.3     1  UNL1        0.0729
     39 C           8.4763   -2.6870    0.0000 C.3     1  UNL1        0.0729
     40 H           6.1269    0.8499    0.0000 H       1  UNL1        0.0654
     41 H           5.4301   -0.5574    0.0000 H       1  UNL1        0.0654
     42 H           6.7144   -0.7739    0.0000 H       1  UNL1        0.0653
     43 H           4.7860    1.1284    0.0000 H       1  UNL1        0.0647
     44 H           3.9705    0.0415    0.0000 H       1  UNL1        0.0647
     45 H           7.3728    0.4795    0.0000 H       1  UNL1        0.0647
     46 H           5.3707   -0.6630    0.0000 H       1  UNL1        0.0588
     47 H           5.5091   -1.4480    0.0000 H       1  UNL1        0.0588
     48 H           4.7860    3.3684    0.0000 H       1  UNL1        0.0647
     49 H           3.0000   -1.9604    0.0000 H       1  UNL1        0.0647
     50 H           7.0549    2.4384    0.0000 H       1  UNL1        0.0646
     51 H           5.4301   -2.2894    0.0000 H       1  UNL1        0.0646
     52 H           8.7874    0.5360    0.0000 H       1  UNL1        0.0647
     53 H           6.1889    3.5584    0.0000 H       1  UNL1        0.0647
     54 H           4.1201   -2.8264    0.0000 H       1  UNL1        0.0647
     55 H           3.7597    0.5430    0.0000 H       1  UNL1        0.2105
     56 H           7.8277   -2.1007    0.0000 H       1  UNL1        0.0646
     57 H           9.1764   -1.6700    0.0000 H       1  UNL1        0.0647
     58 H           7.2022    1.0140    0.0000 H       1  UNL1        0.2105
     59 H           7.7826    3.7233    0.0000 H       1  UNL1        0.0584
     60 H           6.9855    3.7233    0.0000 H       1  UNL1        0.0584
     61 H           5.7849   -3.5540    0.0000 H       1  UNL1        0.0584
     62 H           5.7849   -2.7569    0.0000 H       1  UNL1        0.0584
     63 H           3.3830    1.5584    0.0000 H       1  UNL1        0.2100
     64 H           2.4070   -0.3673    0.0000 H       1  UNL1        0.2100
     65 H           7.8563   -2.6870    0.0000 H       1  UNL1        0.0584
     66 H           8.3687   -3.2976    0.0000 H       1  UNL1        0.0584
     67 H           8.2567    1.6508    0.0000 H       1  UNL1        0.2100
     68 H           6.3384   -2.3217    0.0000 H       1  UNL1        0.2095
     69 H           3.9199    3.8684    0.0000 H       1  UNL1        0.2100
     70 H           2.0000   -1.9603    0.0000 H       1  UNL1        0.2100
     71 H          10.2437    0.3561    0.0000 H       1  UNL1        0.2100
     72 H           6.1889    4.5584    0.0000 H       1  UNL1        0.2100
     73 H           2.6901   -3.1555    0.0000 H       1  UNL1        0.2100
     74 H          10.4834   -1.0029    0.0000 H       1  UNL1        0.2100
     75 H           8.7870    3.0584    0.0000 H       1  UNL1        0.2095
     76 H           5.1200   -4.5584    0.0000 H       1  UNL1        0.2095
     77 H           9.5237   -3.6396    0.0000 H       1  UNL1        0.2095
@<TRIPOS>BOND
     1     1    21    1
     2     1    30    1
     3     2    22    1
     4     2    31    1
     5     3    19    1
     6     3    55    1
     7     4    23    1
     8     4    35    1
     9     5    20    1
    10     5    58    1
    11    24     6    1
    12     6    63    1
    13    25     7    1
    14     7    64    1
    15    26     8    1
    16     8    67    1
    17     9    27    1
    18     9    68    1
    19    28    10    1
    20    10    69    1
    21    29    11    1
    22    11    70    1
    23    32    12    1
    24    12    71    1
    25    33    13    1
    26    13    72    1
    27    34    14    1
    28    14    73    1
    29    36    15    1
    30    15    74    1
    31    16    37    1
    32    16    75    1
    33    17    38    1
    34    17    76    1
    35    18    39    1
    36    18    77    1
    37    19    20    1
    38    19    21    1
    39    19    22    1
    40    20    23    1
    41    20    27    1
    42    21    24    1
    43    21    40    1
    44    22    25    1
    45    22    41    1
    46    23    26    1
    47    23    42    1
    48    24    28    1
    49    24    43    1
    50    25    29    1
    51    25    44    1
    52    26    32    1
    53    26    45    1
    54    27    46    1
    55    27    47    1
    56    28    33    1
    57    28    48    1
    58    29    34    1
    59    29    49    1
    60    30    33    1
    61    30    37    1
    62    30    50    1
    63    31    34    1
    64    31    38    1
    65    31    51    1
    66    32    36    1
    67    32    52    1
    68    33    53    1
    69    34    54    1
    70    35    36    1
    71    35    39    1
    72    35    56    1
    73    36    57    1
    74    37    59    1
    75    37    60    1
    76    38    61    1
    77    38    62    1
    78    39    65    1
    79    39    66    1
