@<TRIPOS>MOLECULE
IMPHY008566
 44 46 0 0 0
SMALL
GASTEIGER

@<TRIPOS>ATOM
      1 O           7.1892    0.6068    0.0000 O.3     1  UNL1       -0.4826
      2 O           8.9212    2.6068    0.0000 O.3     1  UNL1       -0.3875
      3 O           5.4407    3.6414    0.0000 O.3     1  UNL1       -0.5064
      4 O           6.3125   -0.9177    0.0000 O.2     1  UNL1       -0.2872
      5 C           8.0552    1.1068    0.0000 C.3     1  UNL1        0.1310
      6 C           8.0552    2.1068    0.0000 C.3     1  UNL1        0.0984
      7 C           7.1892    2.6068    0.0000 C.3     1  UNL1        0.0091
      8 C           6.3231    2.1068    0.0000 C.ar    1  UNL1        0.0389
      9 C           6.3231    1.1068    0.0000 C.ar    1  UNL1        0.1389
     10 C           9.0552    1.1068    0.0000 C.3     1  UNL1       -0.0227
     11 C           8.5552    0.2408    0.0000 C.3     1  UNL1       -0.0227
     12 C           5.4292    0.5721    0.0000 C.ar    1  UNL1        0.0638
     13 C           5.4292    2.6415    0.0000 C.ar    1  UNL1        0.1236
     14 C           4.5231    1.0860    0.0000 C.ar    1  UNL1       -0.0439
     15 C           4.5231    2.1276    0.0000 C.ar    1  UNL1       -0.0190
     16 C           5.4407   -0.4278    0.0000 C.2     1  UNL1        0.1896
     17 C           4.5806   -0.9378    0.0000 C.2     1  UNL1       -0.0137
     18 C           4.5921   -1.9377    0.0000 C.2     1  UNL1       -0.0510
     19 C           3.7319   -2.4477    0.0000 C.ar    1  UNL1       -0.0249
     20 C           2.8602   -1.9577    0.0000 C.ar    1  UNL1       -0.0546
     21 C           3.7435   -3.4476    0.0000 C.ar    1  UNL1       -0.0546
     22 C           2.0000   -2.4677    0.0000 C.ar    1  UNL1       -0.0612
     23 C           2.8833   -3.9576    0.0000 C.ar    1  UNL1       -0.0612
     24 C           2.0116   -3.4676    0.0000 C.ar    1  UNL1       -0.0617
     25 H           8.5921    1.7968    0.0000 H       1  UNL1        0.0636
     26 H           7.5877    3.0818    0.0000 H       1  UNL1        0.0342
     27 H           6.7906    3.0818    0.0000 H       1  UNL1        0.0342
     28 H           8.0182   -0.0692    0.0000 H       1  UNL1        0.0269
     29 H           9.0552    0.4868    0.0000 H       1  UNL1        0.0269
     30 H           9.6752    1.1068    0.0000 H       1  UNL1        0.0269
     31 H           9.0552    1.7268    0.0000 H       1  UNL1        0.0269
     32 H           8.8652   -0.2962    0.0000 H       1  UNL1        0.0269
     33 H           9.0921    0.5508    0.0000 H       1  UNL1        0.0269
     34 H           8.9212    3.2268    0.0000 H       1  UNL1        0.2100
     35 H           3.9874    0.7739    0.0000 H       1  UNL1        0.0627
     36 H           3.9874    2.4397    0.0000 H       1  UNL1        0.0654
     37 H           4.9074    3.9576    0.0000 H       1  UNL1        0.2921
     38 H           4.0401   -0.6340    0.0000 H       1  UNL1        0.0656
     39 H           5.1326   -2.2415    0.0000 H       1  UNL1        0.0625
     40 H           2.8530   -1.3378    0.0000 H       1  UNL1        0.0623
     41 H           4.2840   -3.7514    0.0000 H       1  UNL1        0.0623
     42 H           1.4595   -2.1639    0.0000 H       1  UNL1        0.0618
     43 H           2.8905   -4.5775    0.0000 H       1  UNL1        0.0618
     44 H           1.4782   -3.7838    0.0000 H       1  UNL1        0.0618
@<TRIPOS>BOND
     1     1     5    1
     2     1     9    1
     3     2     6    1
     4     2    34    1
     5     3    13    1
     6     3    37    1
     7     4    16    2
     8     5     6    1
     9     5    10    1
    10     5    11    1
    11     6     7    1
    12     6    25    1
    13     7     8    1
    14     7    26    1
    15     7    27    1
    16     8     9   ar
    17     8    13   ar
    18     9    12   ar
    19    10    29    1
    20    10    30    1
    21    10    31    1
    22    11    28    1
    23    11    32    1
    24    11    33    1
    25    12    14   ar
    26    12    16    1
    27    13    15   ar
    28    14    15   ar
    29    14    35    1
    30    15    36    1
    31    16    17    1
    32    17    18    2
    33    17    38    1
    34    18    19    1
    35    18    39    1
    36    19    20   ar
    37    19    21   ar
    38    20    22   ar
    39    20    40    1
    40    21    23   ar
    41    21    41    1
    42    22    24   ar
    43    22    42    1
    44    23    24   ar
    45    23    43    1
    46    24    44    1
