@<TRIPOS>MOLECULE
IMPHY006616
 20 20 0 0 0
SMALL
GASTEIGER

@<TRIPOS>ATOM
      1 O           2.5369    0.2500    0.0000 O.3     1  UNL1       -0.5064
      2 O           4.2690   -2.7500    0.0000 O.3     1  UNL1       -0.5066
      3 O           5.1350    2.7500    0.0000 O.3     1  UNL1       -0.4804
      4 O           6.0010    1.2500    0.0000 O.2     1  UNL1       -0.2506
      5 C           4.2690    0.2500    0.0000 C.ar    1  UNL1        0.0049
      6 C           4.2690    1.2500    0.0000 C.3     1  UNL1        0.0733
      7 C           3.4030   -0.2500    0.0000 C.ar    1  UNL1        0.1240
      8 C           5.1350   -0.2500    0.0000 C.ar    1  UNL1       -0.0511
      9 C           3.4030   -1.2500    0.0000 C.ar    1  UNL1        0.0216
     10 C           5.1350   -1.2500    0.0000 C.ar    1  UNL1       -0.0197
     11 C           4.2690   -1.7500    0.0000 C.ar    1  UNL1        0.1203
     12 C           5.1350    1.7500    0.0000 C.2     1  UNL1        0.3092
     13 H           4.0569    1.8326    0.0000 H       1  UNL1        0.0427
     14 H           3.6584    1.1423    0.0000 H       1  UNL1        0.0427
     15 H           5.6720    0.0600    0.0000 H       1  UNL1        0.0623
     16 H           2.8660   -1.5600    0.0000 H       1  UNL1        0.0691
     17 H           5.6720   -1.5600    0.0000 H       1  UNL1        0.0654
     18 H           2.0000   -0.0600    0.0000 H       1  UNL1        0.2921
     19 H           4.8059   -3.0600    0.0000 H       1  UNL1        0.2921
     20 H           5.6720    3.0600    0.0000 H       1  UNL1        0.2951
@<TRIPOS>BOND
     1     1     7    1
     2     1    18    1
     3     2    11    1
     4     2    19    1
     5     3    12    1
     6     3    20    1
     7     4    12    2
     8     5     6    1
     9     5     7   ar
    10     5     8   ar
    11     6    12    1
    12     6    13    1
    13     6    14    1
    14     7     9   ar
    15     8    10   ar
    16     8    15    1
    17     9    11   ar
    18     9    16    1
    19    10    11   ar
    20    10    17    1
