@<TRIPOS>MOLECULE
IMPHY006998
 88 94 0 0 0
SMALL
GASTEIGER

@<TRIPOS>ATOM
      1 O           4.5981   -2.3824    0.0000 O.3     1  UNL1       -0.3401
      2 O           6.3301   -0.3824    0.0000 O.3     1  UNL1       -0.3313
      3 O           5.4641   -3.8824    0.0000 O.3     1  UNL1       -0.3461
      4 O           8.0622   -0.3824    0.0000 O.3     1  UNL1       -0.4598
      5 O           6.3301   -3.3824    0.0000 O.3     1  UNL1       -0.3863
      6 O           8.0622   -2.3824    0.0000 O.3     1  UNL1       -0.3829
      7 O           2.8660   -3.3824    0.0000 O.3     1  UNL1       -0.3721
      8 O           2.8660   -5.3824    0.0000 O.3     1  UNL1       -0.3744
      9 O           4.5981   -6.3824    0.0000 O.3     1  UNL1       -0.3869
     10 O           3.7320   -0.8824    0.0000 O.3     1  UNL1       -0.3924
     11 O           5.6663    1.6176    0.0000 O.3     1  UNL1       -0.4562
     12 O           5.9393    3.3728    0.0000 O.2     1  UNL1       -0.2449
     13 O          11.5923    0.5934    0.0000 O.3     1  UNL1       -0.4914
     14 O          11.5923    2.6417    0.0000 O.3     1  UNL1       -0.4914
     15 O           9.6652    5.7846    0.0000 O.3     1  UNL1       -0.4526
     16 O           8.2714    6.5894    0.0000 O.3     1  UNL1       -0.4526
     17 C           5.4641   -1.8824    0.0000 C.3     1  UNL1        0.1185
     18 C           6.3301   -2.3824    0.0000 C.3     1  UNL1        0.1155
     19 C           5.4641   -0.8824    0.0000 C.3     1  UNL1        0.1144
     20 C           7.1962   -1.8824    0.0000 C.3     1  UNL1        0.1454
     21 C           7.1962   -0.8824    0.0000 C.3     1  UNL1        0.2308
     22 C           4.5981   -3.3824    0.0000 C.3     1  UNL1        0.1883
     23 C           3.7320   -3.8824    0.0000 C.3     1  UNL1        0.1374
     24 C           3.7320   -4.8824    0.0000 C.3     1  UNL1        0.1170
     25 C           4.5981   -5.3824    0.0000 C.3     1  UNL1        0.1072
     26 C           4.5981   -0.3824    0.0000 C.3     1  UNL1        0.0731
     27 C           5.4641   -4.8824    0.0000 C.3     1  UNL1        0.0792
     28 C           8.0622    0.6176    0.0000 C.ar    1  UNL1        0.1390
     29 C           7.1962    1.1176    0.0000 C.ar    1  UNL1        0.0466
     30 C           8.9282    1.1176    0.0000 C.ar    1  UNL1        0.0286
     31 C           7.1962    2.1176    0.0000 C.ar    1  UNL1        0.0772
     32 C           8.9282    2.1176    0.0000 C.ar    1  UNL1       -0.0022
     33 C           8.0622    2.6176    0.0000 C.ar    1  UNL1        0.0046
     34 C           6.2499    0.8128    0.0000 C.3     1  UNL1        0.1220
     35 C           2.0000   -3.8824    0.0000 C.3     1  UNL1        0.0371
     36 C           2.8660   -6.3824    0.0000 C.3     1  UNL1        0.0370
     37 C           9.8222    0.5829    0.0000 C.ar    1  UNL1       -0.0051
     38 C           6.2499    2.4223    0.0000 C.2     1  UNL1        0.3406
     39 C           8.0622    3.6176    0.0000 C.ar    1  UNL1       -0.0128
     40 C           9.8222    2.6522    0.0000 C.ar    1  UNL1       -0.0079
     41 C          10.7282    1.0967    0.0000 C.ar    1  UNL1        0.1622
     42 C          10.7282    2.1384    0.0000 C.ar    1  UNL1        0.1621
     43 C           8.9282    4.1176    0.0000 C.ar    1  UNL1       -0.0084
     44 C           7.1962    4.1176    0.0000 C.ar    1  UNL1       -0.0503
     45 C           8.9282    5.1176    0.0000 C.ar    1  UNL1        0.1668
     46 C           7.1962    5.1176    0.0000 C.ar    1  UNL1       -0.0156
     47 C           8.0622    5.6176    0.0000 C.ar    1  UNL1        0.1663
     48 C           9.2601    6.6924    0.0000 C.3     1  UNL1        0.2332
     49 C          11.5884   -0.4066    0.0000 C.3     1  UNL1        0.0790
     50 C          12.4602    2.1451    0.0000 C.3     1  UNL1        0.0790
     51 H           5.4641   -2.5024    0.0000 H       1  UNL1        0.0651
     52 H           6.8671   -2.6924    0.0000 H       1  UNL1        0.0648
     53 H           5.4641   -0.2624    0.0000 H       1  UNL1        0.0647
     54 H           7.7331   -1.5724    0.0000 H       1  UNL1        0.0683
     55 H           7.1962   -0.2624    0.0000 H       1  UNL1        0.1084
     56 H           4.0611   -3.0724    0.0000 H       1  UNL1        0.0937
     57 H           4.2941   -3.2624    0.0000 H       1  UNL1        0.0674
     58 H           3.7320   -5.5024    0.0000 H       1  UNL1        0.0650
     59 H           5.1350   -5.6924    0.0000 H       1  UNL1        0.0643
     60 H           4.9966    0.0925    0.0000 H       1  UNL1        0.0584
     61 H           4.1996    0.0925    0.0000 H       1  UNL1        0.0584
     62 H           5.6762   -5.4650    0.0000 H       1  UNL1        0.0587
     63 H           6.0747   -4.7748    0.0000 H       1  UNL1        0.0587
     64 H           6.8671   -3.6924    0.0000 H       1  UNL1        0.2100
     65 H           8.5991   -2.0724    0.0000 H       1  UNL1        0.2102
     66 H           5.1350   -6.6924    0.0000 H       1  UNL1        0.2100
     67 H           3.1951   -0.5724    0.0000 H       1  UNL1        0.2095
     68 H           5.7126    0.5036    0.0000 H       1  UNL1        0.0750
     69 H           6.5010    0.2459    0.0000 H       1  UNL1        0.0750
     70 H           1.6900   -3.3455    0.0000 H       1  UNL1        0.0524
     71 H           1.4631   -4.1924    0.0000 H       1  UNL1        0.0524
     72 H           2.3100   -4.4194    0.0000 H       1  UNL1        0.0524
     73 H           2.2460   -6.3824    0.0000 H       1  UNL1        0.0524
     74 H           2.8660   -7.0024    0.0000 H       1  UNL1        0.0524
     75 H           3.4860   -6.3824    0.0000 H       1  UNL1        0.0524
     76 H           9.8150   -0.0371    0.0000 H       1  UNL1        0.0662
     77 H           9.8150    3.2722    0.0000 H       1  UNL1        0.0662
     78 H           9.4651    3.8076    0.0000 H       1  UNL1        0.0661
     79 H           6.6592    3.8076    0.0000 H       1  UNL1        0.0625
     80 H           6.6592    5.4276    0.0000 H       1  UNL1        0.0655
     81 H           9.8497    6.8842    0.0000 H       1  UNL1        0.1166
     82 H           9.1314    7.2989    0.0000 H       1  UNL1        0.1166
     83 H          10.9685   -0.4042    0.0000 H       1  UNL1        0.0660
     84 H          11.5861   -1.0266    0.0000 H       1  UNL1        0.0660
     85 H          12.2084   -0.4090    0.0000 H       1  UNL1        0.0660
     86 H          12.1523    1.6069    0.0000 H       1  UNL1        0.0660
     87 H          12.9984    1.8371    0.0000 H       1  UNL1        0.0660
     88 H          12.7682    2.6832    0.0000 H       1  UNL1        0.0660
@<TRIPOS>BOND
     1    17     1    1
     2    22     1    1
     3     2    19    1
     4     2    21    1
     5     3    22    1
     6     3    27    1
     7    21     4    1
     8     4    28    1
     9    18     5    1
    10     5    64    1
    11    20     6    1
    12     6    65    1
    13    23     7    1
    14     7    35    1
    15    24     8    1
    16     8    36    1
    17    25     9    1
    18     9    66    1
    19    10    26    1
    20    10    67    1
    21    11    34    1
    22    11    38    1
    23    12    38    2
    24    13    41    1
    25    13    49    1
    26    14    42    1
    27    14    50    1
    28    15    45    1
    29    15    48    1
    30    16    47    1
    31    16    48    1
    32    17    18    1
    33    17    19    1
    34    17    51    1
    35    18    20    1
    36    18    52    1
    37    19    26    1
    38    19    53    1
    39    20    21    1
    40    20    54    1
    41    21    55    1
    42    22    23    1
    43    22    56    1
    44    23    24    1
    45    23    57    1
    46    24    25    1
    47    24    58    1
    48    25    27    1
    49    25    59    1
    50    26    60    1
    51    26    61    1
    52    27    62    1
    53    27    63    1
    54    28    29   ar
    55    28    30   ar
    56    29    31   ar
    57    29    34    1
    58    30    32   ar
    59    30    37   ar
    60    31    33   ar
    61    31    38    1
    62    32    33   ar
    63    32    40   ar
    64    33    39    1
    65    34    68    1
    66    34    69    1
    67    35    70    1
    68    35    71    1
    69    35    72    1
    70    36    73    1
    71    36    74    1
    72    36    75    1
    73    37    41   ar
    74    37    76    1
    75    39    43   ar
    76    39    44   ar
    77    40    42   ar
    78    40    77    1
    79    41    42   ar
    80    43    45   ar
    81    43    78    1
    82    44    46   ar
    83    44    79    1
    84    45    47   ar
    85    46    47   ar
    86    46    80    1
    87    48    81    1
    88    48    82    1
    89    49    83    1
    90    49    84    1
    91    49    85    1
    92    50    86    1
    93    50    87    1
    94    50    88    1
