@<TRIPOS>MOLECULE
IMPHY001914
 64 69 0 0 0
SMALL
GASTEIGER

@<TRIPOS>ATOM
      1 O           5.3870   -0.1995    0.0000 O.3     1  UNL1       -0.4944
      2 O           9.0602   -1.8937    0.0000 O.3     1  UNL1       -0.4944
      3 O           9.0480   -0.8318    0.0000 O.3     1  UNL1       -0.5053
      4 O           7.2785   -4.9524    0.0000 O.3     1  UNL1       -0.5059
      5 O           4.8873   -1.1518    0.0000 O.2     1  UNL1       -0.2866
      6 O           5.5301   -4.9179    0.0000 O.2     1  UNL1       -0.2864
      7 O           9.8804    0.7061    0.0000 O.2     1  UNL1       -0.2864
      8 O           6.4010    2.6793    0.0000 O.2     1  UNL1       -0.2866
      9 O           3.7817   -4.9524    0.0000 O.3     1  UNL1       -0.5060
     10 O          10.7730    2.2099    0.0000 O.3     1  UNL1       -0.5060
     11 C           7.2901   -1.8832    0.0000 C.ar    1  UNL1        0.0425
     12 C           6.3961   -2.4179    0.0000 C.ar    1  UNL1        0.0480
     13 C           7.2785   -0.8833    0.0000 C.ar    1  UNL1        0.0701
     14 C           6.3961   -3.4179    0.0000 C.ar    1  UNL1        0.0754
     15 C           8.1484    0.6928    0.0000 C.ar    1  UNL1        0.0754
     16 C           7.2785    1.1861    0.0000 C.ar    1  UNL1        0.0401
     17 C           8.1725   -0.3486    0.0000 C.ar    1  UNL1        0.1397
     18 C           4.6641   -2.4179    0.0000 C.ar    1  UNL1        0.0369
     19 C           5.5301   -1.9179    0.0000 C.2     1  UNL1        0.1954
     20 C           6.3725   -0.3694    0.0000 C.ar    1  UNL1        0.1321
     21 C           4.6641   -3.4179    0.0000 C.ar    1  UNL1        0.0745
     22 C           8.1962   -2.3970    0.0000 C.ar    1  UNL1        0.1322
     23 C           5.5301   -3.9179    0.0000 C.2     1  UNL1        0.2015
     24 C           9.0028    2.1994    0.0000 C.ar    1  UNL1        0.0745
     25 C           8.1330    2.6927    0.0000 C.ar    1  UNL1        0.0368
     26 C           6.3725    0.6722    0.0000 C.ar    1  UNL1       -0.0076
     27 C           9.0105    1.1994    0.0000 C.2     1  UNL1        0.2015
     28 C           7.2901   -3.9525    0.0000 C.ar    1  UNL1        0.1319
     29 C           7.2708    2.1860    0.0000 C.2     1  UNL1        0.1949
     30 C           8.1962   -3.4387    0.0000 C.ar    1  UNL1        0.0229
     31 C           3.7702   -1.8832    0.0000 C.ar    1  UNL1       -0.0471
     32 C           3.7702   -3.9525    0.0000 C.ar    1  UNL1        0.1286
     33 C           8.1089    3.7340    0.0000 C.ar    1  UNL1       -0.0471
     34 C           9.9089    2.7132    0.0000 C.ar    1  UNL1        0.1286
     35 C           2.8641   -2.3970    0.0000 C.ar    1  UNL1       -0.0463
     36 C           9.0028    4.2687    0.0000 C.ar    1  UNL1       -0.0463
     37 C           2.8641   -3.4387    0.0000 C.ar    1  UNL1       -0.0165
     38 C           9.9089    3.7549    0.0000 C.ar    1  UNL1       -0.0165
     39 C           2.0000   -1.8937    0.0000 C.3     1  UNL1       -0.0396
     40 C           8.9913    5.2686    0.0000 C.3     1  UNL1       -0.0396
     41 C           5.0414    0.7389    0.0000 C.3     1  UNL1        0.0788
     42 C           9.9282   -2.3904    0.0000 C.3     1  UNL1        0.0788
     43 H           5.8367    0.9843    0.0000 H       1  UNL1        0.0662
     44 H           8.7319   -3.7507    0.0000 H       1  UNL1        0.0691
     45 H           3.7773   -1.2632    0.0000 H       1  UNL1        0.0627
     46 H           7.5661    4.0336    0.0000 H       1  UNL1        0.0627
     47 H           2.3284   -3.7507    0.0000 H       1  UNL1        0.0657
     48 H          10.4446    4.0669    0.0000 H       1  UNL1        0.0657
     49 H           9.5788   -0.5115    0.0000 H       1  UNL1        0.2922
     50 H           2.3121   -1.3580    0.0000 H       1  UNL1        0.0278
     51 H           1.4643   -1.5816    0.0000 H       1  UNL1        0.0278
     52 H           1.6879   -2.4294    0.0000 H       1  UNL1        0.0278
     53 H           7.8118   -5.2686    0.0000 H       1  UNL1        0.2922
     54 H           9.6112    5.2758    0.0000 H       1  UNL1        0.0278
     55 H           8.9841    5.8886    0.0000 H       1  UNL1        0.0278
     56 H           8.3713    5.2615    0.0000 H       1  UNL1        0.0278
     57 H           5.6232    0.9531    0.0000 H       1  UNL1        0.0660
     58 H           4.8272    1.3207    0.0000 H       1  UNL1        0.0660
     59 H           4.4596    0.5246    0.0000 H       1  UNL1        0.0660
     60 H           9.6203   -2.9285    0.0000 H       1  UNL1        0.0660
     61 H          10.4663   -2.6983    0.0000 H       1  UNL1        0.0660
     62 H          10.2361   -1.8522    0.0000 H       1  UNL1        0.0660
     63 H           3.2484   -5.2686    0.0000 H       1  UNL1        0.2922
     64 H          11.3111    2.5178    0.0000 H       1  UNL1        0.2922
@<TRIPOS>BOND
     1     1    20    1
     2     1    41    1
     3     2    22    1
     4     2    42    1
     5     3    17    1
     6     3    49    1
     7     4    28    1
     8     4    53    1
     9     5    19    2
    10     6    23    2
    11     7    27    2
    12     8    29    2
    13     9    32    1
    14     9    63    1
    15    10    34    1
    16    10    64    1
    17    11    12   ar
    18    11    13    1
    19    11    22   ar
    20    12    14   ar
    21    12    19    1
    22    13    17   ar
    23    13    20   ar
    24    14    23    1
    25    14    28   ar
    26    15    16   ar
    27    15    17   ar
    28    15    27    1
    29    16    26   ar
    30    16    29    1
    31    18    19    1
    32    18    21   ar
    33    18    31   ar
    34    20    26   ar
    35    21    23    1
    36    21    32   ar
    37    22    30   ar
    38    24    25   ar
    39    24    27    1
    40    24    34   ar
    41    25    29    1
    42    25    33   ar
    43    26    43    1
    44    28    30   ar
    45    30    44    1
    46    31    35   ar
    47    31    45    1
    48    32    37   ar
    49    33    36   ar
    50    33    46    1
    51    34    38   ar
    52    35    37   ar
    53    35    39    1
    54    36    38   ar
    55    36    40    1
    56    37    47    1
    57    38    48    1
    58    39    50    1
    59    39    51    1
    60    39    52    1
    61    40    54    1
    62    40    55    1
    63    40    56    1
    64    41    57    1
    65    41    58    1
    66    41    59    1
    67    42    60    1
    68    42    61    1
    69    42    62    1
