@<TRIPOS>MOLECULE
IMPHY009522
 81 86 0 0 0
SMALL
GASTEIGER

@<TRIPOS>ATOM
      1 O           9.4968    5.6870    0.0000 O.3     1  UNL1       -0.3769
      2 O           4.2346    5.7112    0.0000 O.3     1  UNL1       -0.4951
      3 O           9.4968   -0.3130    0.0000 O.3     1  UNL1       -0.4524
      4 O           2.5174   -5.3071    0.0000 O.3     1  UNL1       -0.4914
      5 O           2.5405   -3.3072    0.0000 O.3     1  UNL1       -0.5033
      6 O          11.2288    0.6870    0.0000 O.3     1  UNL1       -0.5033
      7 N           8.6308    4.1870    0.0000 N.3     1  UNL1       -0.2732
      8 N           6.9327   -3.8372    0.0000 N.3     1  UNL1       -0.3087
      9 C           7.7647    3.6870    0.0000 C.3     1  UNL1        0.0418
     10 C           8.6308    5.1870    0.0000 C.3     1  UNL1        0.1129
     11 C           6.8987    4.1870    0.0000 C.ar    1  UNL1       -0.0264
     12 C           7.7647    5.6870    0.0000 C.3     1  UNL1        0.0126
     13 C           6.8987    5.1870    0.0000 C.ar    1  UNL1       -0.0355
     14 C           7.7647    2.6870    0.0000 C.3     1  UNL1       -0.0077
     15 C           6.0327   -3.3130    0.0000 C.3     1  UNL1        0.0372
     16 C           9.4968    3.6870    0.0000 C.3     1  UNL1       -0.0099
     17 C           6.0047    3.6524    0.0000 C.ar    1  UNL1       -0.0534
     18 C           8.6308    2.1870    0.0000 C.ar    1  UNL1       -0.0419
     19 C           5.1326   -3.8372    0.0000 C.ar    1  UNL1       -0.0233
     20 C           6.0047    5.7217    0.0000 C.ar    1  UNL1       -0.0163
     21 C           5.1210   -4.8372    0.0000 C.ar    1  UNL1       -0.0378
     22 C           6.0087   -5.3821    0.0000 C.3     1  UNL1       -0.0147
     23 C           6.0327   -2.3130    0.0000 C.3     1  UNL1       -0.0081
     24 C           6.9207   -4.8788    0.0000 C.3     1  UNL1        0.0004
     25 C           5.0987    5.2079    0.0000 C.ar    1  UNL1        0.1204
     26 C           5.0987    4.1662    0.0000 C.ar    1  UNL1       -0.0196
     27 C           4.2724   -3.3273    0.0000 C.ar    1  UNL1       -0.0116
     28 C           6.8987   -1.8130    0.0000 C.ar    1  UNL1       -0.0453
     29 C           8.6308    1.1870    0.0000 C.ar    1  UNL1       -0.0124
     30 C           4.2493   -5.3271    0.0000 C.ar    1  UNL1       -0.0128
     31 C           9.4968    2.6870    0.0000 C.ar    1  UNL1       -0.0548
     32 C           3.4007   -3.8172    0.0000 C.ar    1  UNL1        0.1588
     33 C           3.3891   -4.8172    0.0000 C.ar    1  UNL1        0.1615
     34 C           9.4968    0.6870    0.0000 C.ar    1  UNL1        0.1698
     35 C          10.3628    2.1870    0.0000 C.ar    1  UNL1       -0.0162
     36 C           7.7647   -2.3130    0.0000 C.ar    1  UNL1       -0.0550
     37 C           6.8987   -0.8130    0.0000 C.ar    1  UNL1       -0.0550
     38 C          10.3628    1.1870    0.0000 C.ar    1  UNL1        0.1591
     39 C           8.6308   -0.8130    0.0000 C.ar    1  UNL1        0.1286
     40 C           8.6308   -1.8130    0.0000 C.ar    1  UNL1       -0.0191
     41 C           7.7647   -0.3130    0.0000 C.ar    1  UNL1       -0.0191
     42 C           3.3666    5.2145    0.0000 C.3     1  UNL1        0.0788
     43 C           2.5058   -6.3070    0.0000 C.3     1  UNL1        0.0790
     44 H           8.3017    3.3770    0.0000 H       1  UNL1        0.0516
     45 H           8.6308    5.8070    0.0000 H       1  UNL1        0.0770
     46 H           8.1632    6.1620    0.0000 H       1  UNL1        0.0352
     47 H           7.3662    6.1620    0.0000 H       1  UNL1        0.0352
     48 H           7.1541    2.7947    0.0000 H       1  UNL1        0.0332
     49 H           7.5527    2.1044    0.0000 H       1  UNL1        0.0332
     50 H           6.5702   -3.0040    0.0000 H       1  UNL1        0.0513
     51 H           9.1868    3.1501    0.0000 H       1  UNL1        0.0392
     52 H          10.0337    3.3770    0.0000 H       1  UNL1        0.0392
     53 H           9.8068    4.2240    0.0000 H       1  UNL1        0.0392
     54 H           6.0119    3.0324    0.0000 H       1  UNL1        0.0622
     55 H           6.0119    6.3417    0.0000 H       1  UNL1        0.0657
     56 H           5.5987   -5.8472    0.0000 H       1  UNL1        0.0326
     57 H           6.3968   -5.8657    0.0000 H       1  UNL1        0.0326
     58 H           5.8206   -1.7304    0.0000 H       1  UNL1        0.0332
     59 H           5.4221   -2.4206    0.0000 H       1  UNL1        0.0332
     60 H           7.1230   -5.4649    0.0000 H       1  UNL1        0.0427
     61 H           7.5327   -4.7798    0.0000 H       1  UNL1        0.0427
     62 H           7.4720   -3.5314    0.0000 H       1  UNL1        0.1225
     63 H           4.5630    3.8542    0.0000 H       1  UNL1        0.0654
     64 H           9.4968    6.3070    0.0000 H       1  UNL1        0.2115
     65 H           4.2796   -2.7073    0.0000 H       1  UNL1        0.0658
     66 H           8.0938    0.8770    0.0000 H       1  UNL1        0.0658
     67 H           4.2421   -5.9471    0.0000 H       1  UNL1        0.0658
     68 H           9.4968    3.3070    0.0000 H       1  UNL1        0.0621
     69 H          10.8997    2.4970    0.0000 H       1  UNL1        0.0655
     70 H           7.7647   -2.9330    0.0000 H       1  UNL1        0.0621
     71 H           6.3618   -0.5030    0.0000 H       1  UNL1        0.0621
     72 H           9.1677   -2.1230    0.0000 H       1  UNL1        0.0654
     73 H           7.7647    0.3070    0.0000 H       1  UNL1        0.0654
     74 H           3.0587    5.7527    0.0000 H       1  UNL1        0.0660
     75 H           2.8285    4.9066    0.0000 H       1  UNL1        0.0660
     76 H           3.6746    4.6764    0.0000 H       1  UNL1        0.0660
     77 H           2.0000   -3.6110    0.0000 H       1  UNL1        0.2923
     78 H          11.7658    0.9970    0.0000 H       1  UNL1        0.2923
     79 H           1.8858   -6.2999    0.0000 H       1  UNL1        0.0660
     80 H           2.4986   -6.9270    0.0000 H       1  UNL1        0.0660
     81 H           3.1258   -6.3142    0.0000 H       1  UNL1        0.0660
@<TRIPOS>BOND
     1    10     1    1
     2     1    64    1
     3     2    25    1
     4     2    42    1
     5     3    34    1
     6     3    39    1
     7     4    33    1
     8     4    43    1
     9     5    32    1
    10     5    77    1
    11     6    38    1
    12     6    78    1
    13     7     9    1
    14     7    10    1
    15     7    16    1
    16     8    15    1
    17     8    24    1
    18     8    62    1
    19     9    11    1
    20     9    14    1
    21     9    44    1
    22    10    12    1
    23    10    45    1
    24    11    13   ar
    25    11    17   ar
    26    12    13    1
    27    12    46    1
    28    12    47    1
    29    13    20   ar
    30    14    18    1
    31    14    48    1
    32    14    49    1
    33    15    19    1
    34    15    23    1
    35    15    50    1
    36    16    51    1
    37    16    52    1
    38    16    53    1
    39    17    26   ar
    40    17    54    1
    41    18    29   ar
    42    18    31   ar
    43    19    21   ar
    44    19    27   ar
    45    20    25   ar
    46    20    55    1
    47    21    22    1
    48    21    30   ar
    49    22    24    1
    50    22    56    1
    51    22    57    1
    52    23    28    1
    53    23    58    1
    54    23    59    1
    55    24    60    1
    56    24    61    1
    57    25    26   ar
    58    26    63    1
    59    27    32   ar
    60    27    65    1
    61    28    36   ar
    62    28    37   ar
    63    29    34   ar
    64    29    66    1
    65    30    33   ar
    66    30    67    1
    67    31    35   ar
    68    31    68    1
    69    32    33   ar
    70    34    38   ar
    71    35    38   ar
    72    35    69    1
    73    36    40   ar
    74    36    70    1
    75    37    41   ar
    76    37    71    1
    77    39    40   ar
    78    39    41   ar
    79    40    72    1
    80    41    73    1
    81    42    74    1
    82    42    75    1
    83    42    76    1
    84    43    79    1
    85    43    80    1
    86    43    81    1
