@<TRIPOS>MOLECULE
IMPHY002613
 39 40 0 0 0
SMALL
GASTEIGER

@<TRIPOS>ATOM
      1 O           5.3442   -1.7514    0.0000 O.3     1  UNL1       -0.4571
      2 O           6.8671    1.2204    0.0000 O.3     1  UNL1       -0.3870
      3 O           2.5369    0.7204    0.0000 O.3     1  UNL1       -0.3875
      4 O           6.8329   -2.7204    0.0000 O.2     1  UNL1       -0.2453
      5 C           6.0010   -0.2796    0.0000 C.3     1  UNL1        0.0572
      6 C           5.1350   -0.7796    0.0000 C.3     1  UNL1        0.1167
      7 C           6.0010    0.7204    0.0000 C.3     1  UNL1        0.0840
      8 C           4.2690   -0.2796    0.0000 C.3     1  UNL1        0.0084
      9 C           6.7380   -0.9466    0.0000 C.2     1  UNL1        0.0389
     10 C           4.2690    0.7204    0.0000 C.2     1  UNL1       -0.0450
     11 C           3.4030    1.2204    0.0000 C.3     1  UNL1        0.0764
     12 C           3.4030    2.2204    0.0000 C.3     1  UNL1       -0.0193
     13 C           5.1350    1.2204    0.0000 C.2     1  UNL1       -0.0562
     14 C           4.2690    2.7204    0.0000 C.3     1  UNL1       -0.0293
     15 C           6.3329   -1.8544    0.0000 C.2     1  UNL1        0.3354
     16 C           5.1350    2.2204    0.0000 C.2     1  UNL1       -0.0740
     17 C           7.7166   -0.7404    0.0000 C.2     1  UNL1       -0.0882
     18 C           4.2690    1.7204    0.0000 C.2     1  UNL1       -0.0969
     19 C           6.0010    2.7204    0.0000 C.3     1  UNL1       -0.0437
     20 H           6.7780    0.0652    0.0000 H       1  UNL1        0.0415
     21 H           4.4480   -1.2801    0.0000 H       1  UNL1        0.0744
     22 H           6.5380    0.4104    0.0000 H       1  UNL1        0.0645
     23 H           3.6584   -0.1719    0.0000 H       1  UNL1        0.0347
     24 H           4.0569   -0.8622    0.0000 H       1  UNL1        0.0347
     25 H           3.4030    0.6004    0.0000 H       1  UNL1        0.0640
     26 H           3.1909    2.8031    0.0000 H       1  UNL1        0.0296
     27 H           2.7924    2.1128    0.0000 H       1  UNL1        0.0296
     28 H           4.9230    0.6378    0.0000 H       1  UNL1        0.0597
     29 H           4.6675    3.1954    0.0000 H       1  UNL1        0.0311
     30 H           3.8705    3.1954    0.0000 H       1  UNL1        0.0311
     31 H           8.1306   -1.2019    0.0000 H       1  UNL1        0.0540
     32 H           7.9092   -0.1511    0.0000 H       1  UNL1        0.0540
     33 H           7.4040    0.9104    0.0000 H       1  UNL1        0.2102
     34 H           4.8059    2.0304    0.0000 H       1  UNL1        0.0535
     35 H           3.7320    2.0304    0.0000 H       1  UNL1        0.0535
     36 H           6.3110    2.1835    0.0000 H       1  UNL1        0.0274
     37 H           6.5380    3.0304    0.0000 H       1  UNL1        0.0274
     38 H           5.6910    3.2574    0.0000 H       1  UNL1        0.0274
     39 H           2.0000    1.0304    0.0000 H       1  UNL1        0.2102
@<TRIPOS>BOND
     1     1     6    1
     2     1    15    1
     3     7     2    1
     4     2    33    1
     5    11     3    1
     6     3    39    1
     7     4    15    2
     8     5     6    1
     9     5     7    1
    10     5     9    1
    11     5    20    1
    12     6     8    1
    13     6    21    1
    14     7    13    1
    15     7    22    1
    16     8    10    1
    17     8    23    1
    18     8    24    1
    19     9    15    1
    20     9    17    2
    21    10    11    1
    22    10    18    2
    23    11    12    1
    24    11    25    1
    25    12    14    1
    26    12    26    1
    27    12    27    1
    28    13    16    2
    29    13    28    1
    30    14    16    1
    31    14    29    1
    32    14    30    1
    33    16    19    1
    34    17    31    1
    35    17    32    1
    36    18    34    1
    37    18    35    1
    38    19    36    1
    39    19    37    1
    40    19    38    1
