@<TRIPOS>MOLECULE
IMPHY004506
 75 79 0 0 0
SMALL
GASTEIGER

@<TRIPOS>ATOM
      1 O           5.8527    1.8955    0.0000 O.3     1  UNL1       -0.2225
      2 O           5.8527    2.8955    0.0000 O.3     1  UNL1       -0.2225
      3 O           4.1085    5.9648    0.0000 O.3     1  UNL1       -0.3917
      4 C           4.9866    1.3955    0.0000 C.3     1  UNL1        0.1293
      5 C           5.0027    0.3540    0.0000 C.3     1  UNL1        0.0007
      6 C           4.1206    1.8955    0.0000 C.3     1  UNL1        0.0035
      7 C           4.1046   -0.1737    0.0000 C.3     1  UNL1       -0.0229
      8 C           4.1206    2.8955    0.0000 C.3     1  UNL1        0.0096
      9 C           4.9866    3.3955    0.0000 C.3     1  UNL1        0.1306
     10 C           4.3304   -1.1843    0.0000 C.3     1  UNL1       -0.0293
     11 C           3.2106    1.3887    0.0000 C.3     1  UNL1       -0.0461
     12 C           3.2026    0.3471    0.0000 C.3     1  UNL1       -0.0466
     13 C           5.7757   -0.3349    0.0000 C.3     1  UNL1       -0.0464
     14 C           5.3610   -1.2837    0.0000 C.3     1  UNL1       -0.0488
     15 C           3.2106    3.4024    0.0000 C.3     1  UNL1       -0.0419
     16 C           4.5866    1.9955    0.0000 C.2     1  UNL1       -0.0501
     17 C           4.5866    2.7955    0.0000 C.2     1  UNL1       -0.0501
     18 C           5.0027    4.4370    0.0000 C.3     1  UNL1        0.0095
     19 C           3.2425   -0.6804    0.0000 C.3     1  UNL1       -0.0589
     20 C           3.1358    2.7219    0.0000 C.3     1  UNL1       -0.0562
     21 C           3.6683   -1.9337    0.0000 C.3     1  UNL1       -0.0224
     22 C           3.2026    4.4440    0.0000 C.3     1  UNL1       -0.0261
     23 C           4.1046    4.9648    0.0000 C.3     1  UNL1        0.0583
     24 C           2.6882   -1.7350    0.0000 C.3     1  UNL1       -0.0587
     25 C           3.9863   -2.8818    0.0000 C.2     1  UNL1       -0.0846
     26 C           3.3242   -3.6312    0.0000 C.2     1  UNL1       -0.0846
     27 C           3.6422   -4.5793    0.0000 C.3     1  UNL1       -0.0234
     28 C           2.9801   -5.3288    0.0000 C.3     1  UNL1       -0.0407
     29 C           4.6222   -4.7780    0.0000 C.3     1  UNL1       -0.0587
     30 C           3.2980   -6.2769    0.0000 C.3     1  UNL1       -0.0621
     31 C           2.0000   -5.1301    0.0000 C.3     1  UNL1       -0.0621
     32 H           5.7756    0.7077    0.0000 H       1  UNL1        0.0338
     33 H           3.2835    2.0431    0.0000 H       1  UNL1        0.0339
     34 H           4.6421   -1.9750    0.0000 H       1  UNL1        0.0312
     35 H           3.0060    1.9740    0.0000 H       1  UNL1        0.0269
     36 H           2.5990    1.2873    0.0000 H       1  UNL1        0.0269
     37 H           2.5926    0.4579    0.0000 H       1  UNL1        0.0271
     38 H           2.9890   -0.2350    0.0000 H       1  UNL1        0.0271
     39 H           6.3146   -0.6415    0.0000 H       1  UNL1        0.0269
     40 H           6.1373    0.1688    0.0000 H       1  UNL1        0.0269
     41 H           5.2370   -1.8912    0.0000 H       1  UNL1        0.0268
     42 H           5.9521   -1.4709    0.0000 H       1  UNL1        0.0268
     43 H           2.5990    3.5038    0.0000 H       1  UNL1        0.0272
     44 H           3.0060    2.8171    0.0000 H       1  UNL1        0.0272
     45 H           3.9932    1.8159    0.0000 H       1  UNL1        0.0599
     46 H           3.9932    2.9752    0.0000 H       1  UNL1        0.0599
     47 H           5.6118    4.3216    0.0000 H       1  UNL1        0.0322
     48 H           5.2207    5.0174    0.0000 H       1  UNL1        0.0322
     49 H           2.9284   -0.1459    0.0000 H       1  UNL1        0.0235
     50 H           2.7080   -0.9945    0.0000 H       1  UNL1        0.0235
     51 H           3.5566   -1.2149    0.0000 H       1  UNL1        0.0235
     52 H           3.0282    3.3325    0.0000 H       1  UNL1        0.0236
     53 H           2.5252    2.6143    0.0000 H       1  UNL1        0.0236
     54 H           3.2434    2.1113    0.0000 H       1  UNL1        0.0236
     55 H           3.2578   -2.3984    0.0000 H       1  UNL1        0.0343
     56 H           2.9890    5.0260    0.0000 H       1  UNL1        0.0290
     57 H           2.5926    4.3332    0.0000 H       1  UNL1        0.0290
     58 H           3.5683    5.2758    0.0000 H       1  UNL1        0.0594
     59 H           2.8114   -1.1274    0.0000 H       1  UNL1        0.0235
     60 H           2.0806   -1.6119    0.0000 H       1  UNL1        0.0235
     61 H           2.5650   -2.3427    0.0000 H       1  UNL1        0.0235
     62 H           4.5939   -3.0050    0.0000 H       1  UNL1        0.0572
     63 H           3.5728    6.2769    0.0000 H       1  UNL1        0.2098
     64 H           2.7165   -3.5081    0.0000 H       1  UNL1        0.0572
     65 H           4.0526   -4.1147    0.0000 H       1  UNL1        0.0343
     66 H           2.5696   -5.7934    0.0000 H       1  UNL1        0.0301
     67 H           4.4990   -5.3856    0.0000 H       1  UNL1        0.0235
     68 H           5.2299   -4.9012    0.0000 H       1  UNL1        0.0235
     69 H           4.7454   -4.1704    0.0000 H       1  UNL1        0.0235
     70 H           2.7102   -6.4740    0.0000 H       1  UNL1        0.0233
     71 H           3.4952   -6.8647    0.0000 H       1  UNL1        0.0233
     72 H           3.8859   -6.0797    0.0000 H       1  UNL1        0.0233
     73 H           2.1232   -4.5224    0.0000 H       1  UNL1        0.0233
     74 H           1.3924   -5.0069    0.0000 H       1  UNL1        0.0233
     75 H           1.8768   -5.7377    0.0000 H       1  UNL1        0.0233
@<TRIPOS>BOND
     1     1     2    1
     2     4     1    1
     3     2     9    1
     4    23     3    1
     5     3    63    1
     6     4     5    1
     7     4     6    1
     8     4    16    1
     9     5     7    1
    10     5    13    1
    11     5    32    1
    12     6     8    1
    13     6    11    1
    14     6    33    1
    15     7    10    1
    16     7    12    1
    17     7    19    1
    18     8     9    1
    19     8    15    1
    20     8    20    1
    21     9    17    1
    22     9    18    1
    23    10    14    1
    24    10    21    1
    25    10    34    1
    26    11    12    1
    27    11    35    1
    28    11    36    1
    29    12    37    1
    30    12    38    1
    31    13    14    1
    32    13    39    1
    33    13    40    1
    34    14    41    1
    35    14    42    1
    36    15    22    1
    37    15    43    1
    38    15    44    1
    39    16    17    2
    40    16    45    1
    41    17    46    1
    42    18    23    1
    43    18    47    1
    44    18    48    1
    45    19    49    1
    46    19    50    1
    47    19    51    1
    48    20    52    1
    49    20    53    1
    50    20    54    1
    51    21    24    1
    52    21    25    1
    53    21    55    1
    54    22    23    1
    55    22    56    1
    56    22    57    1
    57    23    58    1
    58    24    59    1
    59    24    60    1
    60    24    61    1
    61    25    26    2
    62    25    62    1
    63    26    27    1
    64    26    64    1
    65    27    28    1
    66    27    29    1
    67    27    65    1
    68    28    30    1
    69    28    31    1
    70    28    66    1
    71    29    67    1
    72    29    68    1
    73    29    69    1
    74    30    70    1
    75    30    71    1
    76    30    72    1
    77    31    73    1
    78    31    74    1
    79    31    75    1
