@<TRIPOS>MOLECULE
IMPHY010824
 28 32 0 0 0
SMALL
GASTEIGER

@<TRIPOS>ATOM
      1 N           7.9065    0.0000    0.0000 N.3     1  UNL1       -0.2198
      2 C           8.9842   -0.6736    0.0000 C.3     1  UNL1        0.0691
      3 C           8.9842   -1.9792    0.0000 C.3     1  UNL1       -0.0031
      4 C           6.7563   -1.9896    0.0000 C.3     1  UNL1        0.0128
      5 C           6.7563   -3.2952    0.0000 C.3     1  UNL1       -0.0215
      6 C           5.6060   -3.8962    0.0000 C.3     1  UNL1       -0.0226
      7 C           4.4765   -3.2952    0.0000 C.3     1  UNL1        0.0123
      8 C           4.4765   -1.9896    0.0000 C.3     1  UNL1        0.1486
      9 C           5.6060   -1.3160    0.0000 C.3     1  UNL1        0.0334
     10 C           6.7563   -0.6736    0.0000 C.3     1  UNL1        0.0881
     11 C           8.9842   -3.2952    0.0000 C.3     1  UNL1       -0.0029
     12 C           7.9065   -3.8962    0.0000 C.3     1  UNL1       -0.0045
     13 C           5.6060   -5.2123    0.0000 C.3     1  UNL1       -0.0001
     14 C           4.4765   -5.8858    0.0000 C.3     1  UNL1        0.0221
     15 C           3.3989   -5.2123    0.0000 C.2     1  UNL1       -0.0381
     16 C           2.2590   -5.8858    0.0000 C.2     1  UNL1        0.0338
     17 C           1.1191   -5.2123    0.0000 C.2     1  UNL1        0.1948
     18 C           1.1191   -3.8962    0.0000 C.2     1  UNL1        0.0377
     19 C           2.2590   -3.2952    0.0000 C.2     1  UNL1       -0.0200
     20 C           3.3989   -3.8962    0.0000 C.3     1  UNL1        0.0325
     21 C          10.1240    0.0000    0.0000 C.3     1  UNL1        0.0185
     22 O           3.3263   -1.3367    0.0000 O.3     1  UNL1       -0.2235
     23 O           0.0000   -5.8858    0.0000 O.2     1  UNL1       -0.2866
     24 C           3.3989   -2.6217    0.0000 C.3     1  UNL1        0.0082
     25 H           6.7563   -4.5698    0.0000 H       1  UNL1        0.0316
     26 H           4.4765   -4.5698    0.0000 H       1  UNL1        0.0346
     27 H           5.6060   -2.6217    0.0000 H       1  UNL1        0.0314
     28 H          10.3623   -1.9792    0.0000 H       1  UNL1        0.0332
@<TRIPOS>BOND
     1     1    10    1
     2     1     2    1
     3     2     3    1
     4     2    21    1
     5     3     4    1
     6     3    11    1
     7     3    28    1
     8     4     9    1
     9     4     5    1
    10     4    10    1
    11     5     6    1
    12     5    12    1
    13     5    25    1
    14     6    13    1
    15     6     7    1
    16     6    27    1
    17     7    20    1
    18     7     8    1
    19     7    26    1
    20     8     9    1
    21     8    22    1
    22    11    12    1
    23    13    14    1
    24    14    15    1
    25    15    20    1
    26    15    16    2
    27    16    17    1
    28    17    18    1
    29    17    23    2
    30    18    19    2
    31    19    20    1
    32    20    24    1
