@<TRIPOS>MOLECULE
IMPHY015323
 21 22 0 0 0
SMALL
GASTEIGER

@<TRIPOS>ATOM
      1 N           6.1279   -0.3776    0.0000 N.ar    1  UNL1       -0.2807
      2 N           5.5443   -1.1824    0.0000 N.ar    1  UNL1       -0.1736
      3 C           4.5981    0.1224    0.0000 C.ar    1  UNL1        0.0224
      4 C           4.5981   -0.8776    0.0000 C.ar    1  UNL1        0.0930
      5 C           5.5443    0.4271    0.0000 C.ar    1  UNL1        0.0407
      6 C           2.8660   -0.8776    0.0000 C.ar    1  UNL1       -0.0484
      7 C           3.7320   -1.3776    0.0000 C.ar    1  UNL1       -0.0311
      8 C           3.7320    0.6224    0.0000 C.ar    1  UNL1       -0.0506
      9 C           2.8660    0.1224    0.0000 C.ar    1  UNL1       -0.0581
     10 C           5.8550    1.3776    0.0000 C.3     1  UNL1       -0.0223
     11 C           2.0000   -1.3776    0.0000 C.3     1  UNL1       -0.0396
     12 H           3.7320   -1.9976    0.0000 H       1  UNL1        0.0642
     13 H           3.7320    1.2424    0.0000 H       1  UNL1        0.0625
     14 H           2.3291    0.4324    0.0000 H       1  UNL1        0.0620
     15 H           6.7479   -0.3776    0.0000 H       1  UNL1        0.1885
     16 H           6.4443    1.1850    0.0000 H       1  UNL1        0.0292
     17 H           6.0476    1.9670    0.0000 H       1  UNL1        0.0292
     18 H           5.2656    1.5702    0.0000 H       1  UNL1        0.0292
     19 H           1.6900   -0.8407    0.0000 H       1  UNL1        0.0278
     20 H           1.4631   -1.6876    0.0000 H       1  UNL1        0.0278
     21 H           2.3100   -1.9146    0.0000 H       1  UNL1        0.0278
@<TRIPOS>BOND
     1     1     2   ar
     2     1     5   ar
     3     1    15    1
     4     2     4   ar
     5     3     4   ar
     6     3     5   ar
     7     3     8   ar
     8     4     7   ar
     9     5    10    1
    10     6     7   ar
    11     6     9   ar
    12     6    11    1
    13     7    12    1
    14     8     9   ar
    15     8    13    1
    16     9    14    1
    17    10    16    1
    18    10    17    1
    19    10    18    1
    20    11    19    1
    21    11    20    1
    22    11    21    1
