@<TRIPOS>MOLECULE
IMPHY009357
 54 59 0 0 0
SMALL
GASTEIGER

@<TRIPOS>ATOM
      1 N           7.1164   -0.8813    0.0000 N.ar    1  UNL1       -0.3572
      2 N           7.0872    2.9967    0.0000 N.ar    1  UNL1       -0.3603
      3 C           5.0047    0.6561    0.0000 C.3     1  UNL1       -0.0130
      4 C           4.3197    1.4409    0.0000 C.3     1  UNL1       -0.0267
      5 C           4.6957   -0.2949    0.0000 C.3     1  UNL1        0.0089
      6 C           6.0047    0.6561    0.0000 C.3     1  UNL1        0.0307
      7 C           5.5047   -0.8827    0.0000 C.ar    1  UNL1       -0.0114
      8 C           6.3137   -0.2949    0.0000 C.ar    1  UNL1        0.0286
      9 C           3.2992    1.2322    0.0000 C.3     1  UNL1       -0.0265
     10 C           3.6803   -0.5272    0.0000 C.2     1  UNL1       -0.0772
     11 C           2.9773    0.2415    0.0000 C.2     1  UNL1       -0.0754
     12 C           4.1231    2.4214    0.0000 C.3     1  UNL1       -0.0592
     13 C           5.0706    2.1014    0.0000 C.3     1  UNL1       -0.0592
     14 C           6.5925    1.4652    0.0000 C.ar    1  UNL1       -0.0132
     15 C           5.8143   -1.8273    0.0000 C.ar    1  UNL1        0.0037
     16 C           6.8084   -1.8265    0.0000 C.ar    1  UNL1        0.0470
     17 C           7.5866    1.4643    0.0000 C.ar    1  UNL1        0.0035
     18 C           2.0000    0.0298    0.0000 C.3     1  UNL1       -0.0438
     19 C           6.2845    2.4103    0.0000 C.ar    1  UNL1        0.0065
     20 C           5.2836   -2.7164    0.0000 C.ar    1  UNL1       -0.0523
     21 C           7.8939    2.4159    0.0000 C.ar    1  UNL1        0.0467
     22 C           7.3407   -2.7147    0.0000 C.ar    1  UNL1       -0.0378
     23 C           8.2570    0.7223    0.0000 C.ar    1  UNL1       -0.0523
     24 C           5.7952   -3.6167    0.0000 C.ar    1  UNL1       -0.0611
     25 C           6.8307   -3.6158    0.0000 C.ar    1  UNL1       -0.0598
     26 C           8.8717    2.6255    0.0000 C.ar    1  UNL1       -0.0378
     27 C           9.2348    0.9319    0.0000 C.ar    1  UNL1       -0.0611
     28 C           9.5421    1.8835    0.0000 C.ar    1  UNL1       -0.0598
     29 H           5.3564    1.4300    0.0000 H       1  UNL1        0.0324
     30 H           4.5254   -1.1277    0.0000 H       1  UNL1        0.0395
     31 H           5.6188    1.4135    0.0000 H       1  UNL1        0.0416
     32 H           3.2808    1.8519    0.0000 H       1  UNL1        0.0315
     33 H           2.6855    1.3200    0.0000 H       1  UNL1        0.0315
     34 H           3.4955   -1.1190    0.0000 H       1  UNL1        0.0578
     35 H           4.7310    2.5432    0.0000 H       1  UNL1        0.0235
     36 H           4.0013    3.0293    0.0000 H       1  UNL1        0.0235
     37 H           3.5152    2.2995    0.0000 H       1  UNL1        0.0235
     38 H           5.4801    1.6358    0.0000 H       1  UNL1        0.0235
     39 H           5.5361    2.5109    0.0000 H       1  UNL1        0.0235
     40 H           4.6611    2.5669    0.0000 H       1  UNL1        0.0235
     41 H           7.7064   -0.6907    0.0000 H       1  UNL1        0.1656
     42 H           1.8688    0.6358    0.0000 H       1  UNL1        0.0274
     43 H           1.3940   -0.1014    0.0000 H       1  UNL1        0.0274
     44 H           2.1312   -0.5761    0.0000 H       1  UNL1        0.0274
     45 H           5.6945    2.6009    0.0000 H       1  UNL1        0.0810
     46 H           4.6636   -2.7098    0.0000 H       1  UNL1        0.0624
     47 H           7.9606   -2.7070    0.0000 H       1  UNL1        0.0638
     48 H           7.0850    3.6167    0.0000 H       1  UNL1        0.1653
     49 H           8.0664    0.1323    0.0000 H       1  UNL1        0.0624
     50 H           5.4836   -4.1527    0.0000 H       1  UNL1        0.0618
     51 H           7.1432   -4.1513    0.0000 H       1  UNL1        0.0618
     52 H           9.0623    3.2155    0.0000 H       1  UNL1        0.0638
     53 H           9.6504    0.4719    0.0000 H       1  UNL1        0.0618
     54 H          10.1484    2.0135    0.0000 H       1  UNL1        0.0618
@<TRIPOS>BOND
     1     1     8   ar
     2     1    16   ar
     3     1    41    1
     4     2    19   ar
     5     2    21   ar
     6     2    48    1
     7     3     4    1
     8     3     5    1
     9     3     6    1
    10     3    29    1
    11     4     9    1
    12     4    12    1
    13     4    13    1
    14     5     7    1
    15     5    10    1
    16     5    30    1
    17     6     8    1
    18     6    14    1
    19     6    31    1
    20     7     8   ar
    21     7    15   ar
    22     9    11    1
    23     9    32    1
    24     9    33    1
    25    10    11    2
    26    10    34    1
    27    11    18    1
    28    12    35    1
    29    12    36    1
    30    12    37    1
    31    13    38    1
    32    13    39    1
    33    13    40    1
    34    14    17   ar
    35    14    19   ar
    36    15    16   ar
    37    15    20   ar
    38    16    22   ar
    39    17    21   ar
    40    17    23   ar
    41    18    42    1
    42    18    43    1
    43    18    44    1
    44    19    45    1
    45    20    24   ar
    46    20    46    1
    47    21    26   ar
    48    22    25   ar
    49    22    47    1
    50    23    27   ar
    51    23    49    1
    52    24    25   ar
    53    24    50    1
    54    25    51    1
    55    26    28   ar
    56    26    52    1
    57    27    28   ar
    58    27    53    1
    59    28    54    1
