@<TRIPOS>MOLECULE
IMPHY017261
 80 82 0 0 0
SMALL
GASTEIGER

@<TRIPOS>ATOM
      1 C           4.5981    0.2500    0.0000 C.3     1  UNL1       -0.0410
      2 C           2.8660   -2.7500    0.0000 C.3     1  UNL1       -0.0410
      3 C           6.3301    3.2500    0.0000 C.3     1  UNL1       -0.0410
      4 C           8.0622    0.2500    0.0000 C.3     1  UNL1       -0.0410
      5 C           3.7320   -0.2500    0.0000 C.3     1  UNL1       -0.0502
      6 C           4.5981    1.2500    0.0000 C.3     1  UNL1       -0.0502
      7 C           5.4641   -0.2500    0.0000 C.3     1  UNL1       -0.0502
      8 C           2.8660   -1.7500    0.0000 C.3     1  UNL1       -0.0502
      9 C           5.4641    2.7500    0.0000 C.3     1  UNL1       -0.0502
     10 C           7.1962   -0.2500    0.0000 C.3     1  UNL1       -0.0502
     11 C           3.7320   -1.2500    0.0000 C.3     1  UNL1       -0.0526
     12 C           5.4641    1.7500    0.0000 C.3     1  UNL1       -0.0526
     13 C           6.3301    0.2500    0.0000 C.3     1  UNL1       -0.0526
     14 C           2.0000   -3.2500    0.0000 C.3     1  UNL1       -0.0502
     15 C           3.7320   -3.2500    0.0000 C.3     1  UNL1       -0.0502
     16 C           7.1962    2.7500    0.0000 C.3     1  UNL1       -0.0502
     17 C           6.3301    4.2500    0.0000 C.3     1  UNL1       -0.0502
     18 C           8.9282   -0.2500    0.0000 C.3     1  UNL1       -0.0502
     19 C           8.0622    1.2500    0.0000 C.3     1  UNL1       -0.0502
     20 C           2.0000   -4.2500    0.0000 C.3     1  UNL1       -0.0528
     21 C           3.7320   -4.2500    0.0000 C.3     1  UNL1       -0.0528
     22 C           8.0622    3.2500    0.0000 C.3     1  UNL1       -0.0528
     23 C           7.1962    4.7500    0.0000 C.3     1  UNL1       -0.0528
     24 C           9.7942    0.2500    0.0000 C.3     1  UNL1       -0.0528
     25 C           8.9282    1.7500    0.0000 C.3     1  UNL1       -0.0528
     26 C           2.8660   -4.7500    0.0000 C.3     1  UNL1       -0.0530
     27 C           8.0622    4.2500    0.0000 C.3     1  UNL1       -0.0530
     28 C           9.7942    1.2500    0.0000 C.3     1  UNL1       -0.0530
     29 H           4.5981   -0.3700    0.0000 H       1  UNL1        0.0301
     30 H           3.4030   -2.4400    0.0000 H       1  UNL1        0.0301
     31 H           5.7932    3.5600    0.0000 H       1  UNL1        0.0301
     32 H           8.0622   -0.3700    0.0000 H       1  UNL1        0.0301
     33 H           3.5200    0.3326    0.0000 H       1  UNL1        0.0268
     34 H           3.1215   -0.3577    0.0000 H       1  UNL1        0.0268
     35 H           4.3860    1.8326    0.0000 H       1  UNL1        0.0268
     36 H           3.9875    1.1423    0.0000 H       1  UNL1        0.0268
     37 H           5.0656   -0.7249    0.0000 H       1  UNL1        0.0268
     38 H           5.8626   -0.7249    0.0000 H       1  UNL1        0.0268
     39 H           2.6540   -1.1674    0.0000 H       1  UNL1        0.0268
     40 H           2.2554   -1.8577    0.0000 H       1  UNL1        0.0268
     41 H           5.2520    3.3326    0.0000 H       1  UNL1        0.0268
     42 H           4.8535    2.6423    0.0000 H       1  UNL1        0.0268
     43 H           6.7976   -0.7249    0.0000 H       1  UNL1        0.0268
     44 H           7.5947   -0.7249    0.0000 H       1  UNL1        0.0268
     45 H           3.9441   -1.8326    0.0000 H       1  UNL1        0.0265
     46 H           4.3426   -1.1423    0.0000 H       1  UNL1        0.0265
     47 H           5.6762    1.1674    0.0000 H       1  UNL1        0.0265
     48 H           6.0747    1.8577    0.0000 H       1  UNL1        0.0265
     49 H           6.7287    0.7249    0.0000 H       1  UNL1        0.0265
     50 H           5.9316    0.7249    0.0000 H       1  UNL1        0.0265
     51 H           1.7880   -2.6674    0.0000 H       1  UNL1        0.0268
     52 H           1.3894   -3.3577    0.0000 H       1  UNL1        0.0268
     53 H           4.3426   -3.3577    0.0000 H       1  UNL1        0.0268
     54 H           3.9441   -2.6674    0.0000 H       1  UNL1        0.0268
     55 H           6.7976    2.2750    0.0000 H       1  UNL1        0.0268
     56 H           7.5947    2.2750    0.0000 H       1  UNL1        0.0268
     57 H           6.1181    4.8326    0.0000 H       1  UNL1        0.0268
     58 H           5.7196    4.1423    0.0000 H       1  UNL1        0.0268
     59 H           8.5297   -0.7249    0.0000 H       1  UNL1        0.0268
     60 H           9.3267   -0.7249    0.0000 H       1  UNL1        0.0268
     61 H           7.8501    1.8326    0.0000 H       1  UNL1        0.0268
     62 H           7.4516    1.1423    0.0000 H       1  UNL1        0.0268
     63 H           1.3894   -4.1423    0.0000 H       1  UNL1        0.0265
     64 H           1.7880   -4.8326    0.0000 H       1  UNL1        0.0265
     65 H           3.9441   -4.8326    0.0000 H       1  UNL1        0.0265
     66 H           4.3426   -4.1423    0.0000 H       1  UNL1        0.0265
     67 H           8.2742    2.6674    0.0000 H       1  UNL1        0.0265
     68 H           8.6728    3.3577    0.0000 H       1  UNL1        0.0265
     69 H           7.5947    5.2250    0.0000 H       1  UNL1        0.0265
     70 H           6.7976    5.2250    0.0000 H       1  UNL1        0.0265
     71 H          10.0063   -0.3326    0.0000 H       1  UNL1        0.0265
     72 H          10.4048    0.3577    0.0000 H       1  UNL1        0.0265
     73 H           9.3267    2.2250    0.0000 H       1  UNL1        0.0265
     74 H           8.5297    2.2250    0.0000 H       1  UNL1        0.0265
     75 H           2.4675   -5.2250    0.0000 H       1  UNL1        0.0265
     76 H           3.2646   -5.2250    0.0000 H       1  UNL1        0.0265
     77 H           8.6728    4.1423    0.0000 H       1  UNL1        0.0265
     78 H           8.2742    4.8326    0.0000 H       1  UNL1        0.0265
     79 H          10.4048    1.1423    0.0000 H       1  UNL1        0.0265
     80 H          10.0063    1.8326    0.0000 H       1  UNL1        0.0265
@<TRIPOS>BOND
     1     1     5    1
     2     1     6    1
     3     1     7    1
     4     1    29    1
     5     2     8    1
     6     2    14    1
     7     2    15    1
     8     2    30    1
     9     3     9    1
    10     3    16    1
    11     3    17    1
    12     3    31    1
    13     4    10    1
    14     4    18    1
    15     4    19    1
    16     4    32    1
    17     5    11    1
    18     5    33    1
    19     5    34    1
    20     6    12    1
    21     6    35    1
    22     6    36    1
    23     7    13    1
    24     7    37    1
    25     7    38    1
    26     8    11    1
    27     8    39    1
    28     8    40    1
    29     9    12    1
    30     9    41    1
    31     9    42    1
    32    10    13    1
    33    10    43    1
    34    10    44    1
    35    11    45    1
    36    11    46    1
    37    12    47    1
    38    12    48    1
    39    13    49    1
    40    13    50    1
    41    14    20    1
    42    14    51    1
    43    14    52    1
    44    15    21    1
    45    15    53    1
    46    15    54    1
    47    16    22    1
    48    16    55    1
    49    16    56    1
    50    17    23    1
    51    17    57    1
    52    17    58    1
    53    18    24    1
    54    18    59    1
    55    18    60    1
    56    19    25    1
    57    19    61    1
    58    19    62    1
    59    20    26    1
    60    20    63    1
    61    20    64    1
    62    21    26    1
    63    21    65    1
    64    21    66    1
    65    22    27    1
    66    22    67    1
    67    22    68    1
    68    23    27    1
    69    23    69    1
    70    23    70    1
    71    24    28    1
    72    24    71    1
    73    24    72    1
    74    25    28    1
    75    25    73    1
    76    25    74    1
    77    26    75    1
    78    26    76    1
    79    27    77    1
    80    27    78    1
    81    28    79    1
    82    28    80    1
