@<TRIPOS>MOLECULE
IMPHY006593
 21 21 0 0 0
SMALL
GASTEIGER

@<TRIPOS>ATOM
      1 O           4.2690    2.0950    0.0000 O.3     1  UNL1       -0.5033
      2 O           2.5369    1.0950    0.0000 O.3     1  UNL1       -0.5033
      3 C           5.1350   -0.4050    0.0000 C.ar    1  UNL1       -0.0400
      4 C           6.0010   -0.9050    0.0000 C.3     1  UNL1       -0.0096
      5 C           5.1350    0.5950    0.0000 C.ar    1  UNL1       -0.0131
      6 C           4.2690   -0.9050    0.0000 C.ar    1  UNL1       -0.0546
      7 C           4.2690    1.0950    0.0000 C.ar    1  UNL1        0.1585
      8 C           3.4030   -0.4050    0.0000 C.ar    1  UNL1       -0.0163
      9 C           3.4030    0.5950    0.0000 C.ar    1  UNL1        0.1582
     10 C           6.0010   -1.9050    0.0000 C.2     1  UNL1       -0.0868
     11 C           6.8671   -2.4050    0.0000 C.2     1  UNL1       -0.1023
     12 H           6.6116   -1.0127    0.0000 H       1  UNL1        0.0355
     13 H           6.2131   -0.3224    0.0000 H       1  UNL1        0.0355
     14 H           5.6720    0.9050    0.0000 H       1  UNL1        0.0658
     15 H           4.2690   -1.5250    0.0000 H       1  UNL1        0.0622
     16 H           2.8660   -0.7150    0.0000 H       1  UNL1        0.0655
     17 H           5.4641   -2.2150    0.0000 H       1  UNL1        0.0570
     18 H           4.8059    2.4050    0.0000 H       1  UNL1        0.2923
     19 H           2.0000    0.7850    0.0000 H       1  UNL1        0.2923
     20 H           6.8671   -3.0250    0.0000 H       1  UNL1        0.0532
     21 H           7.4040   -2.0950    0.0000 H       1  UNL1        0.0532
@<TRIPOS>BOND
     1     1     7    1
     2     1    18    1
     3     2     9    1
     4     2    19    1
     5     3     4    1
     6     3     5   ar
     7     3     6   ar
     8     4    10    1
     9     4    12    1
    10     4    13    1
    11     5     7   ar
    12     5    14    1
    13     6     8   ar
    14     6    15    1
    15     7     9   ar
    16     8     9   ar
    17     8    16    1
    18    10    11    2
    19    10    17    1
    20    11    20    1
    21    11    21    1
