@<TRIPOS>MOLECULE
IMPHY006740
 78 83 0 0 0
SMALL
GASTEIGER

@<TRIPOS>ATOM
      1 O           3.0783    0.8626    0.0000 O.3     1  UNL1       -0.4604
      2 O          13.4634   -2.1994    0.0000 O.3     1  UNL1       -0.3912
      3 O          10.1606    1.3583    0.0000 O.2     1  UNL1       -0.2923
      4 O           1.9534    2.3285    0.0000 O.2     1  UNL1       -0.2502
      5 C           8.5226   -0.8989    0.0000 C.3     1  UNL1       -0.0127
      6 C           7.5511   -0.4157    0.0000 C.3     1  UNL1       -0.0043
      7 C          10.4454   -0.7719    0.0000 C.3     1  UNL1       -0.0182
      8 C           9.4221   -0.2921    0.0000 C.3     1  UNL1        0.0333
      9 C          10.5329   -1.8986    0.0000 C.3     1  UNL1       -0.0274
     10 C           5.6982    0.5057    0.0000 C.3     1  UNL1        0.0116
     11 C           6.5273    1.0649    0.0000 C.3     1  UNL1       -0.0092
     12 C           7.4704    0.6228    0.0000 C.2     1  UNL1       -0.0561
     13 C           8.5840   -2.0274    0.0000 C.3     1  UNL1       -0.0459
     14 C           6.6875   -0.9982    0.0000 C.3     1  UNL1       -0.0428
     15 C           9.5959   -2.5306    0.0000 C.3     1  UNL1       -0.0486
     16 C          11.5870   -2.4228    0.0000 C.3     1  UNL1       -0.0056
     17 C           5.7549   -0.5344    0.0000 C.3     1  UNL1       -0.0429
     18 C          11.4058   -0.0912    0.0000 C.3     1  UNL1       -0.0443
     19 C           4.4772    1.3714    0.0000 C.3     1  UNL1        0.1100
     20 C           6.2516    2.0262    0.0000 C.3     1  UNL1       -0.0302
     21 C           4.2184    2.3373    0.0000 C.3     1  UNL1        0.0689
     22 C           9.3380    0.7896    0.0000 C.2     1  UNL1        0.1602
     23 C           7.9348   -1.7079    0.0000 C.3     1  UNL1       -0.0581
     24 C           7.2828   -1.3791    0.0000 C.3     1  UNL1       -0.0553
     25 C          12.5629   -1.7645    0.0000 C.3     1  UNL1        0.0606
     26 C           4.9550    3.3199    0.0000 C.3     1  UNL1        0.0004
     27 C           8.3556    1.2501    0.0000 C.2     1  UNL1       -0.0188
     28 C          10.3679    0.2251    0.0000 C.3     1  UNL1       -0.0586
     29 C          12.4717   -0.5909    0.0000 C.3     1  UNL1       -0.0258
     30 C           4.8692   -0.0535    0.0000 C.3     1  UNL1       -0.0556
     31 C          12.1429   -3.2540    0.0000 C.3     1  UNL1       -0.0572
     32 C          11.1451   -3.3199    0.0000 C.3     1  UNL1       -0.0572
     33 C           2.8194    1.8285    0.0000 C.2     1  UNL1        0.3135
     34 C           3.9596    3.3032    0.0000 C.3     1  UNL1       -0.0493
     35 H           8.6567    0.0775    0.0000 H       1  UNL1        0.0392
     36 H          10.5889   -2.7468    0.0000 H       1  UNL1        0.0312
     37 H           7.2319    1.5402    0.0000 H       1  UNL1        0.0353
     38 H           8.4070   -2.6216    0.0000 H       1  UNL1        0.0271
     39 H           7.9683   -1.9546    0.0000 H       1  UNL1        0.0271
     40 H           7.1171   -1.4453    0.0000 H       1  UNL1        0.0274
     41 H           6.3205   -1.4979    0.0000 H       1  UNL1        0.0274
     42 H          10.0255   -2.9777    0.0000 H       1  UNL1        0.0268
     43 H           9.2289   -3.0303    0.0000 H       1  UNL1        0.0268
     44 H           5.5778   -1.1286    0.0000 H       1  UNL1        0.0272
     45 H           5.1391   -0.4617    0.0000 H       1  UNL1        0.0272
     46 H          10.9661    0.3459    0.0000 H       1  UNL1        0.0272
     47 H          11.7612    0.4169    0.0000 H       1  UNL1        0.0272
     48 H           4.6972    0.5503    0.0000 H       1  UNL1        0.0740
     49 H           6.2567    2.6462    0.0000 H       1  UNL1        0.0282
     50 H           6.8659    2.1100    0.0000 H       1  UNL1        0.0282
     51 H           8.4364   -2.0723    0.0000 H       1  UNL1        0.0236
     52 H           7.5704   -2.2095    0.0000 H       1  UNL1        0.0236
     53 H           7.4332   -1.3434    0.0000 H       1  UNL1        0.0236
     54 H           7.8800   -1.5454    0.0000 H       1  UNL1        0.0238
     55 H           7.1164   -1.9763    0.0000 H       1  UNL1        0.0238
     56 H           6.6855   -1.2127    0.0000 H       1  UNL1        0.0238
     57 H          12.6073   -2.3829    0.0000 H       1  UNL1        0.0599
     58 H           4.6372    3.8523    0.0000 H       1  UNL1        0.0311
     59 H           5.5681    3.4119    0.0000 H       1  UNL1        0.0311
     60 H           8.3005    1.8677    0.0000 H       1  UNL1        0.0652
     61 H           9.7498    0.1771    0.0000 H       1  UNL1        0.0235
     62 H          10.3199    0.8433    0.0000 H       1  UNL1        0.0235
     63 H          10.9861    0.2732    0.0000 H       1  UNL1        0.0235
     64 H          12.6350    0.0073    0.0000 H       1  UNL1        0.0290
     65 H          13.0890   -0.6493    0.0000 H       1  UNL1        0.0290
     66 H           5.2159   -0.5675    0.0000 H       1  UNL1        0.0236
     67 H           4.3552   -0.4002    0.0000 H       1  UNL1        0.0236
     68 H           4.5225    0.4605    0.0000 H       1  UNL1        0.0236
     69 H          11.7013   -3.5938    0.0000 H       1  UNL1        0.0236
     70 H          10.8712   -3.8761    0.0000 H       1  UNL1        0.0236
     71 H          10.5889   -3.0460    0.0000 H       1  UNL1        0.0236
     72 H          12.6583   -2.9093    0.0000 H       1  UNL1        0.0236
     73 H          12.4877   -3.7693    0.0000 H       1  UNL1        0.0236
     74 H          11.6276   -3.5987    0.0000 H       1  UNL1        0.0236
     75 H           3.3607    3.1428    0.0000 H       1  UNL1        0.0240
     76 H           3.7991    3.9021    0.0000 H       1  UNL1        0.0240
     77 H           4.5584    3.4637    0.0000 H       1  UNL1        0.0240
     78 H          13.9760   -1.8508    0.0000 H       1  UNL1        0.2098
@<TRIPOS>BOND
     1     1    19    1
     2     1    33    1
     3    25     2    1
     4     2    78    1
     5     3    22    2
     6     4    33    2
     7     5     6    1
     8     5     8    1
     9     5    13    1
    10     5    23    1
    11     6    12    1
    12     6    14    1
    13     6    24    1
    14     7     8    1
    15     7     9    1
    16     7    18    1
    17     7    28    1
    18     8    22    1
    19     8    35    1
    20     9    15    1
    21     9    16    1
    22     9    36    1
    23    10    11    1
    24    10    17    1
    25    10    19    1
    26    10    30    1
    27    11    12    1
    28    11    20    1
    29    11    37    1
    30    12    27    2
    31    13    15    1
    32    13    38    1
    33    13    39    1
    34    14    17    1
    35    14    40    1
    36    14    41    1
    37    15    42    1
    38    15    43    1
    39    16    25    1
    40    16    31    1
    41    16    32    1
    42    17    44    1
    43    17    45    1
    44    18    29    1
    45    18    46    1
    46    18    47    1
    47    19    26    1
    48    19    48    1
    49    20    21    1
    50    20    49    1
    51    20    50    1
    52    21    26    1
    53    21    33    1
    54    21    34    1
    55    22    27    1
    56    23    51    1
    57    23    52    1
    58    23    53    1
    59    24    54    1
    60    24    55    1
    61    24    56    1
    62    25    29    1
    63    25    57    1
    64    26    58    1
    65    26    59    1
    66    27    60    1
    67    28    61    1
    68    28    62    1
    69    28    63    1
    70    29    64    1
    71    29    65    1
    72    30    66    1
    73    30    67    1
    74    30    68    1
    75    31    72    1
    76    31    73    1
    77    31    74    1
    78    32    69    1
    79    32    70    1
    80    32    71    1
    81    34    75    1
    82    34    76    1
    83    34    77    1
