@<TRIPOS>MOLECULE
IMPHY012723
 50 49 0 0 0
SMALL
GASTEIGER

@<TRIPOS>ATOM
      1 O           2.5369   -1.8100    0.0000 O.3     1  UNL1       -0.4806
      2 O           3.4030   -3.3100    0.0000 O.2     1  UNL1       -0.2510
      3 C           6.8671   -2.3100    0.0000 C.3     1  UNL1       -0.0530
      4 C           7.7331   -1.8100    0.0000 C.3     1  UNL1       -0.0528
      5 C           6.0010   -1.8100    0.0000 C.3     1  UNL1       -0.0526
      6 C           8.5991   -2.3100    0.0000 C.3     1  UNL1       -0.0496
      7 C           5.1350   -2.3100    0.0000 C.3     1  UNL1       -0.0430
      8 C           9.4651   -1.8100    0.0000 C.3     1  UNL1       -0.0348
      9 C           4.2690   -1.8100    0.0000 C.3     1  UNL1        0.0448
     10 C          10.3312   -2.3100    0.0000 C.2     1  UNL1       -0.0876
     11 C           3.4030   -2.3100    0.0000 C.2     1  UNL1        0.3047
     12 C          11.1972   -1.8100    0.0000 C.2     1  UNL1       -0.0842
     13 C          11.1972   -0.8100    0.0000 C.3     1  UNL1       -0.0165
     14 C          12.0632   -0.3100    0.0000 C.2     1  UNL1       -0.0839
     15 C          12.0632    0.6900    0.0000 C.2     1  UNL1       -0.0839
     16 C          11.1972    1.1900    0.0000 C.3     1  UNL1       -0.0165
     17 C          11.1972    2.1900    0.0000 C.2     1  UNL1       -0.0842
     18 C          10.3312    2.6900    0.0000 C.2     1  UNL1       -0.0879
     19 C           9.4651    2.1900    0.0000 C.3     1  UNL1       -0.0376
     20 C           8.5991    2.6900    0.0000 C.3     1  UNL1       -0.0618
     21 H           6.4685   -2.7849    0.0000 H       1  UNL1        0.0265
     22 H           7.2656   -2.7849    0.0000 H       1  UNL1        0.0265
     23 H           8.1316   -1.3350    0.0000 H       1  UNL1        0.0265
     24 H           7.3346   -1.3350    0.0000 H       1  UNL1        0.0265
     25 H           6.3996   -1.3350    0.0000 H       1  UNL1        0.0265
     26 H           5.6025   -1.3350    0.0000 H       1  UNL1        0.0265
     27 H           8.2006   -2.7849    0.0000 H       1  UNL1        0.0268
     28 H           8.9976   -2.7849    0.0000 H       1  UNL1        0.0268
     29 H           4.7365   -2.7849    0.0000 H       1  UNL1        0.0270
     30 H           5.5335   -2.7849    0.0000 H       1  UNL1        0.0270
     31 H           9.8637   -1.3350    0.0000 H       1  UNL1        0.0307
     32 H           9.0666   -1.3350    0.0000 H       1  UNL1        0.0307
     33 H           4.6675   -1.3350    0.0000 H       1  UNL1        0.0377
     34 H           3.8705   -1.3350    0.0000 H       1  UNL1        0.0377
     35 H          10.3312   -2.9300    0.0000 H       1  UNL1        0.0569
     36 H          11.7341   -2.1200    0.0000 H       1  UNL1        0.0572
     37 H          10.9851   -0.2274    0.0000 H       1  UNL1        0.0350
     38 H          10.5866   -0.9177    0.0000 H       1  UNL1        0.0350
     39 H          12.6002   -0.6200    0.0000 H       1  UNL1        0.0572
     40 H          12.6002    1.0000    0.0000 H       1  UNL1        0.0572
     41 H          10.5866    1.2977    0.0000 H       1  UNL1        0.0350
     42 H          10.9851    0.6074    0.0000 H       1  UNL1        0.0350
     43 H           2.0000   -2.1200    0.0000 H       1  UNL1        0.2951
     44 H          11.7341    2.5000    0.0000 H       1  UNL1        0.0572
     45 H          10.3312    3.3100    0.0000 H       1  UNL1        0.0569
     46 H           9.0666    1.7150    0.0000 H       1  UNL1        0.0305
     47 H           9.8637    1.7150    0.0000 H       1  UNL1        0.0305
     48 H           8.9091    3.2269    0.0000 H       1  UNL1        0.0233
     49 H           8.0622    3.0000    0.0000 H       1  UNL1        0.0233
     50 H           8.2891    2.1531    0.0000 H       1  UNL1        0.0233
@<TRIPOS>BOND
     1     1    11    1
     2     1    43    1
     3     2    11    2
     4     3     4    1
     5     3     5    1
     6     3    21    1
     7     3    22    1
     8     4     6    1
     9     4    23    1
    10     4    24    1
    11     5     7    1
    12     5    25    1
    13     5    26    1
    14     6     8    1
    15     6    27    1
    16     6    28    1
    17     7     9    1
    18     7    29    1
    19     7    30    1
    20     8    10    1
    21     8    31    1
    22     8    32    1
    23     9    11    1
    24     9    33    1
    25     9    34    1
    26    10    12    2
    27    10    35    1
    28    12    13    1
    29    12    36    1
    30    13    14    1
    31    13    37    1
    32    13    38    1
    33    14    15    2
    34    14    39    1
    35    15    16    1
    36    15    40    1
    37    16    17    1
    38    16    41    1
    39    16    42    1
    40    17    18    2
    41    17    44    1
    42    18    19    1
    43    18    45    1
    44    19    20    1
    45    19    46    1
    46    19    47    1
    47    20    48    1
    48    20    49    1
    49    20    50    1
