@<TRIPOS>MOLECULE
IMPHY008358
 74 79 0 0 0
SMALL
GASTEIGER

@<TRIPOS>ATOM
      1 O           8.1223   -3.7657    0.0000 O.3     1  UNL1       -0.4608
      2 O           5.5103   -0.2373    0.0000 O.3     1  UNL1       -0.4549
      3 O           7.2762    0.8005    0.0000 O.3     1  UNL1       -0.3758
      4 O           4.6497   -0.7342    0.0000 O.2     1  UNL1       -0.2940
      5 O           2.8680   -1.7446    0.0000 O.3     1  UNL1       -0.3723
      6 O           9.8438   -3.7985    0.0000 O.2     1  UNL1       -0.2508
      7 O           6.3589    1.2726    0.0000 O.2     1  UNL1       -0.2449
      8 O           3.5232    3.7118    0.0000 O.3     1  UNL1       -0.4526
      9 O           2.1388    2.8910    0.0000 O.3     1  UNL1       -0.4526
     10 C           7.2641   -2.2688    0.0000 C.3     1  UNL1        0.0158
     11 C           6.3981   -1.7688    0.0000 C.3     1  UNL1        0.0201
     12 C           5.5320   -2.2688    0.0000 C.3     1  UNL1        0.0386
     13 C           8.1741   -1.7619    0.0000 C.3     1  UNL1       -0.0168
     14 C           7.2641   -3.2688    0.0000 C.3     1  UNL1        0.1093
     15 C           5.5320   -3.2688    0.0000 C.3     1  UNL1       -0.0250
     16 C           6.3820   -0.7273    0.0000 C.3     1  UNL1        0.1339
     17 C           6.3981   -3.7688    0.0000 C.3     1  UNL1       -0.0114
     18 C           8.1821   -0.7203    0.0000 C.3     1  UNL1       -0.0101
     19 C           7.2800   -0.1995    0.0000 C.3     1  UNL1        0.0983
     20 C           7.2641   -1.2688    0.0000 C.3     1  UNL1       -0.0555
     21 C           4.6381   -3.8034    0.0000 C.3     1  UNL1       -0.0464
     22 C           9.0134   -2.2901    0.0000 C.3     1  UNL1        0.0487
     23 C           4.6381   -1.7341    0.0000 C.2     1  UNL1        0.1683
     24 C           5.5320   -1.2688    0.0000 C.3     1  UNL1       -0.0521
     25 C           3.7320   -2.2479    0.0000 C.3     1  UNL1        0.1166
     26 C           3.7320   -3.2896    0.0000 C.3     1  UNL1       -0.0194
     27 C           9.0501   -0.2237    0.0000 C.3     1  UNL1       -0.0597
     28 C           8.9878   -3.2815    0.0000 C.2     1  UNL1        0.3076
     29 C           5.4987    0.7626    0.0000 C.2     1  UNL1        0.3397
     30 C           8.1403    1.3038    0.0000 C.3     1  UNL1        0.0370
     31 C           2.0000   -2.2413    0.0000 C.3     1  UNL1        0.0374
     32 C           4.6270    1.2526    0.0000 C.ar    1  UNL1        0.0627
     33 C           4.6154    2.2525    0.0000 C.ar    1  UNL1       -0.0022
     34 C           3.7668    0.7426    0.0000 C.ar    1  UNL1       -0.0441
     35 C           3.7436    2.7425    0.0000 C.ar    1  UNL1        0.1670
     36 C           2.8950    1.2326    0.0000 C.ar    1  UNL1       -0.0154
     37 C           2.8834    2.2325    0.0000 C.ar    1  UNL1        0.1663
     38 C           2.5334    3.8034    0.0000 C.3     1  UNL1        0.2332
     39 H           5.6587   -1.3494    0.0000 H       1  UNL1        0.0353
     40 H           8.9198   -1.3539    0.0000 H       1  UNL1        0.0316
     41 H           7.2636   -4.1188    0.0000 H       1  UNL1        0.0739
     42 H           5.5386   -4.1187    0.0000 H       1  UNL1        0.0311
     43 H           5.8493   -1.0445    0.0000 H       1  UNL1        0.0763
     44 H           5.9995   -4.2437    0.0000 H       1  UNL1        0.0304
     45 H           6.7966   -4.2437    0.0000 H       1  UNL1        0.0304
     46 H           8.7173   -1.0334    0.0000 H       1  UNL1        0.0327
     47 H           6.7413    0.1074    0.0000 H       1  UNL1        0.0636
     48 H           7.8841   -1.2688    0.0000 H       1  UNL1        0.0236
     49 H           7.2641   -0.6488    0.0000 H       1  UNL1        0.0236
     50 H           6.6441   -1.2688    0.0000 H       1  UNL1        0.0236
     51 H           4.2445   -4.2824    0.0000 H       1  UNL1        0.0269
     52 H           5.0427   -4.2732    0.0000 H       1  UNL1        0.0269
     53 H           9.6205   -2.4160    0.0000 H       1  UNL1        0.0380
     54 H           9.2452   -1.7151    0.0000 H       1  UNL1        0.0380
     55 H           6.1520   -1.2688    0.0000 H       1  UNL1        0.0239
     56 H           5.5320   -0.6488    0.0000 H       1  UNL1        0.0239
     57 H           4.9120   -1.2688    0.0000 H       1  UNL1        0.0239
     58 H           3.7356   -1.6280    0.0000 H       1  UNL1        0.0675
     59 H           3.1212   -3.1835    0.0000 H       1  UNL1        0.0294
     60 H           3.5230   -3.8733    0.0000 H       1  UNL1        0.0294
     61 H           9.3580   -0.7618    0.0000 H       1  UNL1        0.0233
     62 H           9.5882    0.0843    0.0000 H       1  UNL1        0.0233
     63 H           8.7422    0.3145    0.0000 H       1  UNL1        0.0233
     64 H           8.4523    0.7681    0.0000 H       1  UNL1        0.0524
     65 H           8.6760    1.6159    0.0000 H       1  UNL1        0.0524
     66 H           7.8282    1.8396    0.0000 H       1  UNL1        0.0524
     67 H           1.6921   -1.7031    0.0000 H       1  UNL1        0.0524
     68 H           1.4619   -2.5492    0.0000 H       1  UNL1        0.0524
     69 H           2.3079   -2.7794    0.0000 H       1  UNL1        0.0524
     70 H           5.1487    2.5687    0.0000 H       1  UNL1        0.0663
     71 H           3.7739    0.1226    0.0000 H       1  UNL1        0.0627
     72 H           2.3617    0.9164    0.0000 H       1  UNL1        0.0655
     73 H           2.6551    4.4114    0.0000 H       1  UNL1        0.1166
     74 H           1.9416    3.9884    0.0000 H       1  UNL1        0.1166
@<TRIPOS>BOND
     1     1    14    1
     2     1    28    1
     3    16     2    1
     4     2    29    1
     5    19     3    1
     6     3    30    1
     7     4    23    2
     8    25     5    1
     9     5    31    1
    10     6    28    2
    11     7    29    2
    12     8    35    1
    13     8    38    1
    14     9    37    1
    15     9    38    1
    16    10    11    1
    17    10    13    1
    18    10    14    1
    19    10    20    1
    20    11    12    1
    21    11    16    1
    22    11    39    1
    23    12    15    1
    24    12    23    1
    25    12    24    1
    26    13    18    1
    27    13    22    1
    28    13    40    1
    29    14    17    1
    30    14    41    1
    31    15    17    1
    32    15    21    1
    33    15    42    1
    34    16    19    1
    35    16    43    1
    36    17    44    1
    37    17    45    1
    38    18    19    1
    39    18    27    1
    40    18    46    1
    41    19    47    1
    42    20    48    1
    43    20    49    1
    44    20    50    1
    45    21    26    1
    46    21    51    1
    47    21    52    1
    48    22    28    1
    49    22    53    1
    50    22    54    1
    51    23    25    1
    52    24    55    1
    53    24    56    1
    54    24    57    1
    55    25    26    1
    56    25    58    1
    57    26    59    1
    58    26    60    1
    59    27    61    1
    60    27    62    1
    61    27    63    1
    62    29    32    1
    63    30    64    1
    64    30    65    1
    65    30    66    1
    66    31    67    1
    67    31    68    1
    68    31    69    1
    69    32    33   ar
    70    32    34   ar
    71    33    35   ar
    72    33    70    1
    73    34    36   ar
    74    34    71    1
    75    35    37   ar
    76    36    37   ar
    77    36    72    1
    78    38    73    1
    79    38    74    1
