@<TRIPOS>MOLECULE
IMPHY007116
 51 53 0 0 0
SMALL
GASTEIGER

@<TRIPOS>ATOM
      1 O           4.2690   -2.0950    0.0000 O.3     1  UNL1       -0.3313
      2 O           2.5369   -4.0950    0.0000 O.3     1  UNL1       -0.3865
      3 O           4.2690   -5.0950    0.0000 O.3     1  UNL1       -0.3864
      4 O           6.0010   -2.0950    0.0000 O.3     1  UNL1       -0.4607
      5 O           6.0010   -4.0950    0.0000 O.3     1  UNL1       -0.3829
      6 O           2.5369   -1.0950    0.0000 O.3     1  UNL1       -0.3924
      7 O           4.2690    0.9050    0.0000 O.3     1  UNL1       -0.5059
      8 O           5.1350    2.4050    0.0000 O.2     1  UNL1       -0.2872
      9 C           3.4030   -3.5950    0.0000 C.3     1  UNL1        0.1120
     10 C           4.2690   -4.0950    0.0000 C.3     1  UNL1        0.1152
     11 C           3.4030   -2.5950    0.0000 C.3     1  UNL1        0.1140
     12 C           5.1350   -3.5950    0.0000 C.3     1  UNL1        0.1454
     13 C           5.1350   -2.5950    0.0000 C.3     1  UNL1        0.2308
     14 C           2.5369   -2.0950    0.0000 C.3     1  UNL1        0.0731
     15 C           6.0010   -1.0950    0.0000 C.ar    1  UNL1        0.1275
     16 C           5.1350   -0.5950    0.0000 C.ar    1  UNL1        0.0224
     17 C           6.8671   -0.5950    0.0000 C.ar    1  UNL1       -0.0189
     18 C           5.1350    0.4050    0.0000 C.ar    1  UNL1        0.1311
     19 C           6.8671    0.4050    0.0000 C.ar    1  UNL1       -0.0440
     20 C           6.0010    0.9050    0.0000 C.ar    1  UNL1        0.0632
     21 C           6.0010    1.9050    0.0000 C.2     1  UNL1        0.1896
     22 C           6.8671    2.4050    0.0000 C.2     1  UNL1       -0.0137
     23 C           6.8671    3.4050    0.0000 C.2     1  UNL1       -0.0510
     24 C           7.7331    3.9050    0.0000 C.ar    1  UNL1       -0.0249
     25 C           8.5991    3.4050    0.0000 C.ar    1  UNL1       -0.0546
     26 C           7.7331    4.9050    0.0000 C.ar    1  UNL1       -0.0546
     27 C           9.4651    3.9050    0.0000 C.ar    1  UNL1       -0.0612
     28 C           8.5991    5.4050    0.0000 C.ar    1  UNL1       -0.0612
     29 C           9.4651    4.9050    0.0000 C.ar    1  UNL1       -0.0617
     30 H           2.8660   -3.2850    0.0000 H       1  UNL1        0.0647
     31 H           4.8059   -4.4050    0.0000 H       1  UNL1        0.0648
     32 H           3.4030   -1.9750    0.0000 H       1  UNL1        0.0647
     33 H           5.6720   -3.2850    0.0000 H       1  UNL1        0.0683
     34 H           5.1350   -1.9750    0.0000 H       1  UNL1        0.1084
     35 H           1.9264   -1.9873    0.0000 H       1  UNL1        0.0584
     36 H           2.3249   -2.6776    0.0000 H       1  UNL1        0.0584
     37 H           3.7320   -5.4050    0.0000 H       1  UNL1        0.2100
     38 H           2.0000   -3.7850    0.0000 H       1  UNL1        0.2100
     39 H           6.5380   -3.7850    0.0000 H       1  UNL1        0.2102
     40 H           2.0000   -0.7850    0.0000 H       1  UNL1        0.2095
     41 H           4.5981   -0.9050    0.0000 H       1  UNL1        0.0691
     42 H           7.4040   -0.9050    0.0000 H       1  UNL1        0.0654
     43 H           7.4040    0.7150    0.0000 H       1  UNL1        0.0627
     44 H           3.7320    0.5950    0.0000 H       1  UNL1        0.2922
     45 H           7.4040    2.0950    0.0000 H       1  UNL1        0.0656
     46 H           6.3301    3.7150    0.0000 H       1  UNL1        0.0625
     47 H           8.5991    2.7850    0.0000 H       1  UNL1        0.0623
     48 H           7.1962    5.2150    0.0000 H       1  UNL1        0.0623
     49 H          10.0021    3.5950    0.0000 H       1  UNL1        0.0618
     50 H           8.5991    6.0250    0.0000 H       1  UNL1        0.0618
     51 H          10.0021    5.2150    0.0000 H       1  UNL1        0.0618
@<TRIPOS>BOND
     1     1    11    1
     2     1    13    1
     3     9     2    1
     4     2    38    1
     5    10     3    1
     6     3    37    1
     7    13     4    1
     8     4    15    1
     9    12     5    1
    10     5    39    1
    11     6    14    1
    12     6    40    1
    13     7    18    1
    14     7    44    1
    15     8    21    2
    16     9    10    1
    17     9    11    1
    18     9    30    1
    19    10    12    1
    20    10    31    1
    21    11    14    1
    22    11    32    1
    23    12    13    1
    24    12    33    1
    25    13    34    1
    26    14    35    1
    27    14    36    1
    28    15    16   ar
    29    15    17   ar
    30    16    18   ar
    31    16    41    1
    32    17    19   ar
    33    17    42    1
    34    18    20   ar
    35    19    20   ar
    36    19    43    1
    37    20    21    1
    38    21    22    1
    39    22    23    2
    40    22    45    1
    41    23    24    1
    42    23    46    1
    43    24    25   ar
    44    24    26   ar
    45    25    27   ar
    46    25    47    1
    47    26    28   ar
    48    26    48    1
    49    27    29   ar
    50    27    49    1
    51    28    29   ar
    52    28    50    1
    53    29    51    1
