@<TRIPOS>MOLECULE
IMPHY011835
 132 135 0 0 0
SMALL
GASTEIGER

@<TRIPOS>ATOM
      1 O           4.2690    5.5000    0.0000 O.3     1  UNL1       -0.3405
      2 O           6.0010   -5.5000    0.0000 O.3     1  UNL1       -0.3405
      3 O           7.7331    6.5000    0.0000 O.3     1  UNL1       -0.3312
      4 O           9.4651   -6.5000    0.0000 O.3     1  UNL1       -0.3312
      5 O           6.0010    5.5000    0.0000 O.3     1  UNL1       -0.3460
      6 O           6.8671   -7.0000    0.0000 O.3     1  UNL1       -0.3460
      7 O           6.0010    8.5000    0.0000 O.3     1  UNL1       -0.3865
      8 O           7.7331   -8.5000    0.0000 O.3     1  UNL1       -0.3865
      9 O           6.0010    3.5000    0.0000 O.3     1  UNL1       -0.3841
     10 O           5.1350   -8.0000    0.0000 O.3     1  UNL1       -0.3841
     11 O           4.2690    2.5000    0.0000 O.3     1  UNL1       -0.3864
     12 O           3.4030   -7.0000    0.0000 O.3     1  UNL1       -0.3864
     13 O           7.7331    9.5000    0.0000 O.3     1  UNL1       -0.3864
     14 O           9.4651   -9.5000    0.0000 O.3     1  UNL1       -0.3864
     15 O           2.5369    3.5000    0.0000 O.3     1  UNL1       -0.3865
     16 O           3.4030   -5.0000    0.0000 O.3     1  UNL1       -0.3865
     17 O           9.4651    8.5000    0.0000 O.3     1  UNL1       -0.3829
     18 O          11.1972   -8.5000    0.0000 O.3     1  UNL1       -0.3829
     19 O           9.4651    6.5000    0.0000 O.3     1  UNL1       -0.4290
     20 O          11.1972   -6.5000    0.0000 O.3     1  UNL1       -0.4290
     21 O           2.5369    6.5000    0.0000 O.3     1  UNL1       -0.3924
     22 O           4.2690   -3.5000    0.0000 O.3     1  UNL1       -0.3924
     23 O           8.5991    5.0000    0.0000 O.2     1  UNL1       -0.2452
     24 O          10.3312   -5.0000    0.0000 O.2     1  UNL1       -0.2452
     25 C           6.8671    7.0000    0.0000 C.3     1  UNL1        0.1144
     26 C           8.5991   -7.0000    0.0000 C.3     1  UNL1        0.1144
     27 C           6.8671    8.0000    0.0000 C.3     1  UNL1        0.1120
     28 C           8.5991   -8.0000    0.0000 C.3     1  UNL1        0.1120
     29 C           5.1350    4.0000    0.0000 C.3     1  UNL1        0.1341
     30 C           5.1350   -7.0000    0.0000 C.3     1  UNL1        0.1341
     31 C           4.2690    3.5000    0.0000 C.3     1  UNL1        0.1141
     32 C           4.2690   -6.5000    0.0000 C.3     1  UNL1        0.1141
     33 C           7.7331    8.5000    0.0000 C.3     1  UNL1        0.1152
     34 C           9.4651   -8.5000    0.0000 C.3     1  UNL1        0.1152
     35 C           5.1350    5.0000    0.0000 C.3     1  UNL1        0.1880
     36 C           6.0010   -6.5000    0.0000 C.3     1  UNL1        0.1880
     37 C           3.4030    4.0000    0.0000 C.3     1  UNL1        0.1119
     38 C           4.2690   -5.5000    0.0000 C.3     1  UNL1        0.1119
     39 C           3.4030    5.0000    0.0000 C.3     1  UNL1        0.1130
     40 C           5.1350   -5.0000    0.0000 C.3     1  UNL1        0.1130
     41 C           8.5991    8.0000    0.0000 C.3     1  UNL1        0.1455
     42 C          10.3312   -8.0000    0.0000 C.3     1  UNL1        0.1455
     43 C           6.0010    6.5000    0.0000 C.3     1  UNL1        0.0796
     44 C           7.7331   -6.5000    0.0000 C.3     1  UNL1        0.0796
     45 C           8.5991    7.0000    0.0000 C.3     1  UNL1        0.2341
     46 C          10.3312   -7.0000    0.0000 C.3     1  UNL1        0.2341
     47 C           2.5369    5.5000    0.0000 C.3     1  UNL1        0.0730
     48 C           5.1350   -4.0000    0.0000 C.3     1  UNL1        0.0730
     49 C           9.4651    5.5000    0.0000 C.2     1  UNL1        0.3371
     50 C          11.1972   -5.5000    0.0000 C.2     1  UNL1        0.3371
     51 C          10.3312    5.0000    0.0000 C.2     1  UNL1        0.0336
     52 C          12.0632   -5.0000    0.0000 C.2     1  UNL1        0.0336
     53 C          11.1972    5.5000    0.0000 C.3     1  UNL1       -0.0329
     54 C          12.9292   -5.5000    0.0000 C.3     1  UNL1       -0.0329
     55 C          10.3312    4.0000    0.0000 C.2     1  UNL1       -0.0521
     56 C          12.0632   -4.0000    0.0000 C.2     1  UNL1       -0.0521
     57 C          11.1972    3.5000    0.0000 C.2     1  UNL1       -0.0610
     58 C          12.9292   -3.5000    0.0000 C.2     1  UNL1       -0.0610
     59 C          11.1972    2.5000    0.0000 C.2     1  UNL1       -0.0588
     60 C          12.9292   -2.5000    0.0000 C.2     1  UNL1       -0.0588
     61 C          12.0632    2.0000    0.0000 C.2     1  UNL1       -0.0504
     62 C          13.7953   -2.0000    0.0000 C.2     1  UNL1       -0.0504
     63 C          12.9292    2.5000    0.0000 C.3     1  UNL1       -0.0397
     64 C          14.6613   -2.5000    0.0000 C.3     1  UNL1       -0.0397
     65 C          12.0632    1.0000    0.0000 C.2     1  UNL1       -0.0588
     66 C          13.7953   -1.0000    0.0000 C.2     1  UNL1       -0.0588
     67 C          12.9292    0.5000    0.0000 C.2     1  UNL1       -0.0615
     68 C          12.9292   -0.5000    0.0000 C.2     1  UNL1       -0.0615
     69 H           6.8671    6.3800    0.0000 H       1  UNL1        0.0647
     70 H           8.5991   -6.3800    0.0000 H       1  UNL1        0.0647
     71 H           6.3301    7.6900    0.0000 H       1  UNL1        0.0647
     72 H           8.0622   -7.6900    0.0000 H       1  UNL1        0.0647
     73 H           5.1350    3.3800    0.0000 H       1  UNL1        0.0671
     74 H           5.6720   -7.3100    0.0000 H       1  UNL1        0.0671
     75 H           3.7320    3.1900    0.0000 H       1  UNL1        0.0648
     76 H           3.7320   -6.1900    0.0000 H       1  UNL1        0.0648
     77 H           7.1962    8.8100    0.0000 H       1  UNL1        0.0648
     78 H          10.0021   -8.8100    0.0000 H       1  UNL1        0.0648
     79 H           5.1350    5.6200    0.0000 H       1  UNL1        0.0937
     80 H           6.5380   -6.1900    0.0000 H       1  UNL1        0.0937
     81 H           2.8660    4.3100    0.0000 H       1  UNL1        0.0647
     82 H           4.2690   -4.8800    0.0000 H       1  UNL1        0.0647
     83 H           3.4030    5.6200    0.0000 H       1  UNL1        0.0647
     84 H           5.6720   -4.6900    0.0000 H       1  UNL1        0.0647
     85 H           8.5991    8.6200    0.0000 H       1  UNL1        0.0683
     86 H          10.8681   -7.6900    0.0000 H       1  UNL1        0.0683
     87 H           5.7890    7.0826    0.0000 H       1  UNL1        0.0587
     88 H           5.3905    6.3923    0.0000 H       1  UNL1        0.0587
     89 H           8.1316   -6.0250    0.0000 H       1  UNL1        0.0587
     90 H           7.3346   -6.0250    0.0000 H       1  UNL1        0.0587
     91 H           8.5991    6.3800    0.0000 H       1  UNL1        0.1085
     92 H          10.3312   -6.3800    0.0000 H       1  UNL1        0.1085
     93 H           1.9264    5.6077    0.0000 H       1  UNL1        0.0584
     94 H           2.3249    4.9174    0.0000 H       1  UNL1        0.0584
     95 H           5.7456   -4.1077    0.0000 H       1  UNL1        0.0584
     96 H           5.3471   -3.4174    0.0000 H       1  UNL1        0.0584
     97 H           6.0010    9.1200    0.0000 H       1  UNL1        0.2100
     98 H           7.7331   -9.1200    0.0000 H       1  UNL1        0.2100
     99 H           6.5380    3.8100    0.0000 H       1  UNL1        0.2101
    100 H           4.5981   -8.3100    0.0000 H       1  UNL1        0.2101
    101 H           3.7320    2.1900    0.0000 H       1  UNL1        0.2100
    102 H           2.8660   -6.6900    0.0000 H       1  UNL1        0.2100
    103 H           8.2700    9.8100    0.0000 H       1  UNL1        0.2100
    104 H           8.9282   -9.8100    0.0000 H       1  UNL1        0.2100
    105 H           2.0000    3.8100    0.0000 H       1  UNL1        0.2100
    106 H           2.8660   -5.3100    0.0000 H       1  UNL1        0.2100
    107 H          10.0021    8.1900    0.0000 H       1  UNL1        0.2102
    108 H          11.1972   -9.1200    0.0000 H       1  UNL1        0.2102
    109 H           2.0000    6.8100    0.0000 H       1  UNL1        0.2095
    110 H           4.2690   -2.8800    0.0000 H       1  UNL1        0.2095
    111 H          11.5072    4.9631    0.0000 H       1  UNL1        0.0280
    112 H          11.7341    5.8100    0.0000 H       1  UNL1        0.0280
    113 H          10.8872    6.0369    0.0000 H       1  UNL1        0.0280
    114 H          12.6192   -6.0369    0.0000 H       1  UNL1        0.0280
    115 H          13.4662   -5.8100    0.0000 H       1  UNL1        0.0280
    116 H          13.2392   -4.9631    0.0000 H       1  UNL1        0.0280
    117 H           9.7942    3.6900    0.0000 H       1  UNL1        0.0622
    118 H          11.5263   -3.6900    0.0000 H       1  UNL1        0.0622
    119 H          11.7341    3.8100    0.0000 H       1  UNL1        0.0618
    120 H          13.4662   -3.8100    0.0000 H       1  UNL1        0.0618
    121 H          10.6603    2.1900    0.0000 H       1  UNL1        0.0620
    122 H          12.3923   -2.1900    0.0000 H       1  UNL1        0.0620
    123 H          13.2392    1.9631    0.0000 H       1  UNL1        0.0278
    124 H          13.4662    2.8100    0.0000 H       1  UNL1        0.0278
    125 H          12.6192    3.0369    0.0000 H       1  UNL1        0.0278
    126 H          14.3513   -3.0369    0.0000 H       1  UNL1        0.0278
    127 H          15.1982   -2.8100    0.0000 H       1  UNL1        0.0278
    128 H          14.9713   -1.9631    0.0000 H       1  UNL1        0.0278
    129 H          11.5263    0.6900    0.0000 H       1  UNL1        0.0620
    130 H          14.3322   -0.6900    0.0000 H       1  UNL1        0.0620
    131 H          13.4662    0.8100    0.0000 H       1  UNL1        0.0618
    132 H          12.3923   -0.8100    0.0000 H       1  UNL1        0.0618
@<TRIPOS>BOND
     1     1    35    1
     2     1    39    1
     3     2    36    1
     4     2    40    1
     5     3    25    1
     6     3    45    1
     7     4    26    1
     8     4    46    1
     9    35     5    1
    10     5    43    1
    11    36     6    1
    12     6    44    1
    13    27     7    1
    14     7    97    1
    15    28     8    1
    16     8    98    1
    17    29     9    1
    18     9    99    1
    19    30    10    1
    20    10   100    1
    21    31    11    1
    22    11   101    1
    23    32    12    1
    24    12   102    1
    25    33    13    1
    26    13   103    1
    27    34    14    1
    28    14   104    1
    29    37    15    1
    30    15   105    1
    31    38    16    1
    32    16   106    1
    33    41    17    1
    34    17   107    1
    35    42    18    1
    36    18   108    1
    37    45    19    1
    38    19    49    1
    39    46    20    1
    40    20    50    1
    41    21    47    1
    42    21   109    1
    43    22    48    1
    44    22   110    1
    45    23    49    2
    46    24    50    2
    47    25    27    1
    48    25    43    1
    49    25    69    1
    50    26    28    1
    51    26    44    1
    52    26    70    1
    53    27    33    1
    54    27    71    1
    55    28    34    1
    56    28    72    1
    57    29    31    1
    58    29    35    1
    59    29    73    1
    60    30    32    1
    61    30    36    1
    62    30    74    1
    63    31    37    1
    64    31    75    1
    65    32    38    1
    66    32    76    1
    67    33    41    1
    68    33    77    1
    69    34    42    1
    70    34    78    1
    71    35    79    1
    72    36    80    1
    73    37    39    1
    74    37    81    1
    75    38    40    1
    76    38    82    1
    77    39    47    1
    78    39    83    1
    79    40    48    1
    80    40    84    1
    81    41    45    1
    82    41    85    1
    83    42    46    1
    84    42    86    1
    85    43    87    1
    86    43    88    1
    87    44    89    1
    88    44    90    1
    89    45    91    1
    90    46    92    1
    91    47    93    1
    92    47    94    1
    93    48    95    1
    94    48    96    1
    95    49    51    1
    96    50    52    1
    97    51    53    1
    98    51    55    2
    99    52    54    1
   100    52    56    2
   101    53   111    1
   102    53   112    1
   103    53   113    1
   104    54   114    1
   105    54   115    1
   106    54   116    1
   107    55    57    1
   108    55   117    1
   109    56    58    1
   110    56   118    1
   111    57    59    2
   112    57   119    1
   113    58    60    2
   114    58   120    1
   115    59    61    1
   116    59   121    1
   117    60    62    1
   118    60   122    1
   119    61    63    1
   120    61    65    2
   121    62    64    1
   122    62    66    2
   123    63   123    1
   124    63   124    1
   125    63   125    1
   126    64   126    1
   127    64   127    1
   128    64   128    1
   129    65    67    1
   130    65   129    1
   131    66    68    1
   132    66   130    1
   133    67    68    2
   134    67   131    1
   135    68   132    1
