@<TRIPOS>MOLECULE
IMPHY004928
 39 40 0 0 0
SMALL
GASTEIGER

@<TRIPOS>ATOM
      1 O           3.7320    2.0950    0.0000 O.2     1  UNL1       -0.2922
      2 O           2.8660    0.5950    0.0000 O.2     1  UNL1       -0.2922
      3 O           8.9282    5.0950    0.0000 O.3     1  UNL1       -0.5068
      4 O           2.8660   -5.4050    0.0000 O.3     1  UNL1       -0.5068
      5 C           4.5981    0.5950    0.0000 C.3     1  UNL1        0.0724
      6 C           2.8660   -2.4050    0.0000 C.ar    1  UNL1       -0.0247
      7 C           6.3301    3.5950    0.0000 C.ar    1  UNL1       -0.0247
      8 C           4.5981    1.5950    0.0000 C.2     1  UNL1        0.1635
      9 C           3.7320    0.0950    0.0000 C.2     1  UNL1        0.1635
     10 C           2.8660   -1.4050    0.0000 C.2     1  UNL1       -0.0513
     11 C           5.4641    3.0950    0.0000 C.2     1  UNL1       -0.0513
     12 C           3.7320   -0.9050    0.0000 C.2     1  UNL1       -0.0182
     13 C           5.4641    2.0950    0.0000 C.2     1  UNL1       -0.0182
     14 C           7.1962    3.0950    0.0000 C.ar    1  UNL1       -0.0511
     15 C           2.0000   -2.9050    0.0000 C.ar    1  UNL1       -0.0511
     16 C           6.3301    4.5950    0.0000 C.ar    1  UNL1       -0.0511
     17 C           3.7320   -2.9050    0.0000 C.ar    1  UNL1       -0.0511
     18 C           8.0622    3.5950    0.0000 C.ar    1  UNL1       -0.0196
     19 C           2.0000   -3.9050    0.0000 C.ar    1  UNL1       -0.0196
     20 C           7.1962    5.0950    0.0000 C.ar    1  UNL1       -0.0196
     21 C           3.7320   -3.9050    0.0000 C.ar    1  UNL1       -0.0196
     22 C           2.8660   -4.4050    0.0000 C.ar    1  UNL1        0.1169
     23 C           8.0622    4.5950    0.0000 C.ar    1  UNL1        0.1169
     24 H           4.8101    0.0124    0.0000 H       1  UNL1        0.0426
     25 H           5.2087    0.7027    0.0000 H       1  UNL1        0.0426
     26 H           2.3291   -1.0950    0.0000 H       1  UNL1        0.0624
     27 H           4.9272    3.4050    0.0000 H       1  UNL1        0.0624
     28 H           4.2690   -1.2150    0.0000 H       1  UNL1        0.0653
     29 H           6.0010    1.7850    0.0000 H       1  UNL1        0.0653
     30 H           7.1962    2.4750    0.0000 H       1  UNL1        0.0625
     31 H           1.4631   -2.5950    0.0000 H       1  UNL1        0.0625
     32 H           5.7932    4.9050    0.0000 H       1  UNL1        0.0625
     33 H           4.2690   -2.5950    0.0000 H       1  UNL1        0.0625
     34 H           1.4631   -4.2150    0.0000 H       1  UNL1        0.0654
     35 H           8.5991    3.2850    0.0000 H       1  UNL1        0.0654
     36 H           4.2690   -4.2150    0.0000 H       1  UNL1        0.0654
     37 H           7.1962    5.7150    0.0000 H       1  UNL1        0.0654
     38 H           8.9282    5.7150    0.0000 H       1  UNL1        0.2921
     39 H           2.3291   -5.7150    0.0000 H       1  UNL1        0.2921
@<TRIPOS>BOND
     1     1     8    2
     2     2     9    2
     3     3    23    1
     4     3    38    1
     5     4    22    1
     6     4    39    1
     7     5     8    1
     8     5     9    1
     9     5    24    1
    10     5    25    1
    11     6    10    1
    12     6    15   ar
    13     6    17   ar
    14     7    11    1
    15     7    14   ar
    16     7    16   ar
    17     8    13    1
    18     9    12    1
    19    10    12    2
    20    10    26    1
    21    11    13    2
    22    11    27    1
    23    12    28    1
    24    13    29    1
    25    14    18   ar
    26    14    30    1
    27    15    19   ar
    28    15    31    1
    29    16    20   ar
    30    16    32    1
    31    17    21   ar
    32    17    33    1
    33    18    23   ar
    34    18    35    1
    35    19    22   ar
    36    19    34    1
    37    20    23   ar
    38    20    37    1
    39    21    22   ar
    40    21    36    1
