@<TRIPOS>MOLECULE
IMPHY010288
 136 143 0 0 0
SMALL
GASTEIGER

@<TRIPOS>ATOM
      1 O          11.7543    2.6557    0.0000 O.3     1  UNL1       -0.3450
      2 O          10.2252    3.8876    0.0000 O.3     1  UNL1       -0.3642
      3 O          10.3312   -5.5884    0.0000 O.3     1  UNL1       -0.3454
      4 O           8.5991   -5.5884    0.0000 O.3     1  UNL1       -0.3405
      5 O          14.3888    5.7550    0.0000 O.3     1  UNL1       -0.3484
      6 O          10.3312   -7.5884    0.0000 O.3     1  UNL1       -0.3841
      7 O           8.5991   -8.5884    0.0000 O.3     1  UNL1       -0.3864
      8 O           6.8671   -7.5884    0.0000 O.3     1  UNL1       -0.3865
      9 O           6.0010   -6.0884    0.0000 O.3     1  UNL1       -0.3461
     10 O          15.8862    6.6255    0.0000 O.3     1  UNL1       -0.3405
     11 O          15.3939    4.0260    0.0000 O.3     1  UNL1       -0.3841
     12 O          17.3939    4.0319    0.0000 O.3     1  UNL1       -0.3864
     13 O           5.1350   -4.5884    0.0000 O.3     1  UNL1       -0.3461
     14 O          18.3888    5.7670    0.0000 O.3     1  UNL1       -0.3865
     15 O           4.2690   -7.0884    0.0000 O.3     1  UNL1       -0.3841
     16 O          16.8810    8.3605    0.0000 O.3     1  UNL1       -0.3924
     17 O           2.5369   -6.0884    0.0000 O.3     1  UNL1       -0.3864
     18 O           2.5369   -4.0884    0.0000 O.3     1  UNL1       -0.3869
     19 C          10.3604    0.6085    0.0000 C.3     1  UNL1       -0.0233
     20 C          11.2284    0.1118    0.0000 C.3     1  UNL1       -0.0298
     21 C          11.2322   -0.8882    0.0000 C.3     1  UNL1       -0.0343
     22 C          10.5659    1.5811    0.0000 C.3     1  UNL1       -0.0015
     23 C          10.3681   -1.3915    0.0000 C.3     1  UNL1       -0.0323
     24 C          10.3561   -2.4331    0.0000 C.3     1  UNL1       -0.0260
     25 C          11.5542    1.6880    0.0000 C.3     1  UNL1        0.0660
     26 C          11.9628    0.7817    0.0000 C.3     1  UNL1       -0.0226
     27 C           9.4963    0.1051    0.0000 C.3     1  UNL1       -0.0467
     28 C           9.5002   -0.8949    0.0000 C.3     1  UNL1       -0.0489
     29 C          11.2562   -2.9574    0.0000 C.3     1  UNL1       -0.0330
     30 C          10.1636    2.4837    0.0000 C.3     1  UNL1        0.0158
     31 C          12.1442   -1.3915    0.0000 C.3     1  UNL1       -0.0494
     32 C          12.1562   -2.4331    0.0000 C.3     1  UNL1       -0.0494
     33 C           9.4925    1.1051    0.0000 C.3     1  UNL1       -0.0590
     34 C          10.8966    3.1465    0.0000 C.3     1  UNL1        0.1704
     35 C           9.4062   -2.9574    0.0000 C.3     1  UNL1       -0.0448
     36 C          11.2687   -4.0423    0.0000 C.3     1  UNL1       -0.0232
     37 C           9.4920   -1.9297    0.0000 C.3     1  UNL1       -0.0590
     38 C           9.3936   -4.0423    0.0000 C.3     1  UNL1       -0.0260
     39 C          10.3312   -4.5884    0.0000 C.3     1  UNL1        0.0621
     40 C           9.1852    2.6904    0.0000 C.3     1  UNL1       -0.0572
     41 C          11.3940    4.0140    0.0000 C.3     1  UNL1        0.0018
     42 C          12.3940    4.0170    0.0000 C.3     1  UNL1       -0.0435
     43 C          12.8914    4.8845    0.0000 C.3     1  UNL1       -0.0201
     44 C           9.4651   -6.0884    0.0000 C.3     1  UNL1        0.1882
     45 C           9.4651   -7.0884    0.0000 C.3     1  UNL1        0.1341
     46 C          13.8914    4.8875    0.0000 C.3     1  UNL1        0.0533
     47 C          12.3888    5.7490    0.0000 C.3     1  UNL1       -0.0603
     48 C           8.5991   -7.5884    0.0000 C.3     1  UNL1        0.1141
     49 C           7.7331   -6.0884    0.0000 C.3     1  UNL1        0.1134
     50 C           7.7331   -7.0884    0.0000 C.3     1  UNL1        0.1119
     51 C           6.8671   -5.5884    0.0000 C.3     1  UNL1        0.0796
     52 C          15.3888    5.7580    0.0000 C.3     1  UNL1        0.1879
     53 C          15.8914    4.8935    0.0000 C.3     1  UNL1        0.1341
     54 C          16.8914    4.8965    0.0000 C.3     1  UNL1        0.1141
     55 C          16.8862    6.6285    0.0000 C.3     1  UNL1        0.1130
     56 C          17.3888    5.7640    0.0000 C.3     1  UNL1        0.1119
     57 C           5.1350   -5.5884    0.0000 C.3     1  UNL1        0.1876
     58 C           4.2690   -6.0884    0.0000 C.3     1  UNL1        0.1341
     59 C          17.3836    7.4960    0.0000 C.3     1  UNL1        0.0730
     60 C           3.4030   -5.5884    0.0000 C.3     1  UNL1        0.1137
     61 C           4.2690   -4.0884    0.0000 C.3     1  UNL1        0.0792
     62 C           3.4030   -4.5884    0.0000 C.3     1  UNL1        0.1069
     63 H          12.0067   -0.2299    0.0000 H       1  UNL1        0.0310
     64 H          11.9634   -0.4547    0.0000 H       1  UNL1        0.0306
     65 H           9.7206    1.4915    0.0000 H       1  UNL1        0.0335
     66 H          11.1026   -1.8194    0.0000 H       1  UNL1        0.0309
     67 H          12.3991    1.7812    0.0000 H       1  UNL1        0.0600
     68 H          12.3302    0.2823    0.0000 H       1  UNL1        0.0293
     69 H          12.4981    1.0946    0.0000 H       1  UNL1        0.0293
     70 H           9.2820    0.6869    0.0000 H       1  UNL1        0.0271
     71 H           8.8862   -0.0049    0.0000 H       1  UNL1        0.0271
     72 H           8.8892   -0.7895    0.0000 H       1  UNL1        0.0268
     73 H           9.2904   -1.4783    0.0000 H       1  UNL1        0.0268
     74 H          11.9955   -3.3767    0.0000 H       1  UNL1        0.0307
     75 H          10.0021    3.0823    0.0000 H       1  UNL1        0.0354
     76 H          12.7562   -1.4905    0.0000 H       1  UNL1        0.0268
     77 H          12.3465   -0.8054    0.0000 H       1  UNL1        0.0268
     78 H          12.3720   -3.0143    0.0000 H       1  UNL1        0.0268
     79 H          12.7658   -2.3199    0.0000 H       1  UNL1        0.0268
     80 H           9.8004    1.6433    0.0000 H       1  UNL1        0.0235
     81 H           8.9544    1.4131    0.0000 H       1  UNL1        0.0235
     82 H           9.1846    0.5670    0.0000 H       1  UNL1        0.0235
     83 H           9.2039   -2.3713    0.0000 H       1  UNL1        0.0271
     84 H           8.7941   -3.0564    0.0000 H       1  UNL1        0.0271
     85 H          11.4845   -4.6235    0.0000 H       1  UNL1        0.0293
     86 H          11.8783   -3.9291    0.0000 H       1  UNL1        0.0293
     87 H           9.8041   -1.3940    0.0000 H       1  UNL1        0.0235
     88 H           8.9563   -1.6177    0.0000 H       1  UNL1        0.0235
     89 H           9.1799   -2.4655    0.0000 H       1  UNL1        0.0235
     90 H           8.7840   -3.9291    0.0000 H       1  UNL1        0.0290
     91 H           9.1778   -4.6235    0.0000 H       1  UNL1        0.0290
     92 H          10.8687   -4.8974    0.0000 H       1  UNL1        0.0597
     93 H           9.3133    3.2970    0.0000 H       1  UNL1        0.0234
     94 H           8.5786    2.8185    0.0000 H       1  UNL1        0.0234
     95 H           9.0570    2.0838    0.0000 H       1  UNL1        0.0234
     96 H          11.4998    4.6249    0.0000 H       1  UNL1        0.0317
     97 H          10.8107    4.2243    0.0000 H       1  UNL1        0.0317
     98 H          10.4150    4.4778    0.0000 H       1  UNL1        0.2128
     99 H          12.2881    3.4061    0.0000 H       1  UNL1        0.0270
    100 H          12.9772    3.8067    0.0000 H       1  UNL1        0.0270
    101 H          13.1998    5.4224    0.0000 H       1  UNL1        0.0320
    102 H          10.0021   -6.3984    0.0000 H       1  UNL1        0.0937
    103 H           9.4651   -7.7084    0.0000 H       1  UNL1        0.0671
    104 H          13.7855    4.2766    0.0000 H       1  UNL1        0.0563
    105 H          14.4746    4.6772    0.0000 H       1  UNL1        0.0563
    106 H          12.9248    6.0606    0.0000 H       1  UNL1        0.0233
    107 H          12.0772    6.2850    0.0000 H       1  UNL1        0.0233
    108 H          11.8528    5.4374    0.0000 H       1  UNL1        0.0233
    109 H           8.0622   -7.8984    0.0000 H       1  UNL1        0.0648
    110 H           7.7331   -5.4684    0.0000 H       1  UNL1        0.0647
    111 H           7.1962   -6.7784    0.0000 H       1  UNL1        0.0647
    112 H          10.3312   -8.2084    0.0000 H       1  UNL1        0.2101
    113 H           7.2656   -5.1134    0.0000 H       1  UNL1        0.0587
    114 H           6.4685   -5.1134    0.0000 H       1  UNL1        0.0587
    115 H           8.0622   -8.8984    0.0000 H       1  UNL1        0.2100
    116 H          15.0804    5.2201    0.0000 H       1  UNL1        0.0937
    117 H           6.8671   -8.2084    0.0000 H       1  UNL1        0.2100
    118 H          16.2030    4.3575    0.0000 H       1  UNL1        0.0671
    119 H          17.5113    4.8983    0.0000 H       1  UNL1        0.0648
    120 H          16.5746    7.1645    0.0000 H       1  UNL1        0.0647
    121 H          17.6972    6.3018    0.0000 H       1  UNL1        0.0647
    122 H           5.1350   -6.2084    0.0000 H       1  UNL1        0.0937
    123 H          15.7056    3.4899    0.0000 H       1  UNL1        0.2101
    124 H           3.7320   -6.3984    0.0000 H       1  UNL1        0.0671
    125 H          17.8597    7.0989    0.0000 H       1  UNL1        0.0584
    126 H          17.8573    7.8960    0.0000 H       1  UNL1        0.0584
    127 H          18.0139    4.0338    0.0000 H       1  UNL1        0.2100
    128 H           2.8660   -5.2784    0.0000 H       1  UNL1        0.0647
    129 H          18.6971    6.3048    0.0000 H       1  UNL1        0.2100
    130 H           4.6675   -3.6134    0.0000 H       1  UNL1        0.0587
    131 H           3.8705   -3.6134    0.0000 H       1  UNL1        0.0587
    132 H           3.4030   -3.9684    0.0000 H       1  UNL1        0.0643
    133 H           3.7320   -7.3984    0.0000 H       1  UNL1        0.2101
    134 H          17.1894    8.8984    0.0000 H       1  UNL1        0.2095
    135 H           2.0000   -5.7784    0.0000 H       1  UNL1        0.2100
    136 H           2.5369   -3.4684    0.0000 H       1  UNL1        0.2100
@<TRIPOS>BOND
     1     1    25    1
     2     1    34    1
     3     2    34    1
     4     2    98    1
     5    39     3    1
     6    44     3    1
     7     4    44    1
     8     4    49    1
     9     5    46    1
    10    52     5    1
    11    45     6    1
    12     6   112    1
    13    48     7    1
    14     7   115    1
    15    50     8    1
    16     8   117    1
    17     9    51    1
    18    57     9    1
    19    10    52    1
    20    10    55    1
    21    53    11    1
    22    11   123    1
    23    54    12    1
    24    12   127    1
    25    13    57    1
    26    13    61    1
    27    56    14    1
    28    14   129    1
    29    58    15    1
    30    15   133    1
    31    16    59    1
    32    16   134    1
    33    60    17    1
    34    17   135    1
    35    62    18    1
    36    18   136    1
    37    19    20    1
    38    19    22    1
    39    19    27    1
    40    19    33    1
    41    20    21    1
    42    20    26    1
    43    20    63    1
    44    21    23    1
    45    21    31    1
    46    21    64    1
    47    22    25    1
    48    22    30    1
    49    22    65    1
    50    23    24    1
    51    23    28    1
    52    23    66    1
    53    24    29    1
    54    24    35    1
    55    24    37    1
    56    25    26    1
    57    25    67    1
    58    26    68    1
    59    26    69    1
    60    27    28    1
    61    27    70    1
    62    27    71    1
    63    28    72    1
    64    28    73    1
    65    29    32    1
    66    29    36    1
    67    29    74    1
    68    30    34    1
    69    30    40    1
    70    30    75    1
    71    31    32    1
    72    31    76    1
    73    31    77    1
    74    32    78    1
    75    32    79    1
    76    33    80    1
    77    33    81    1
    78    33    82    1
    79    34    41    1
    80    35    38    1
    81    35    83    1
    82    35    84    1
    83    36    39    1
    84    36    85    1
    85    36    86    1
    86    37    87    1
    87    37    88    1
    88    37    89    1
    89    38    39    1
    90    38    90    1
    91    38    91    1
    92    39    92    1
    93    40    93    1
    94    40    94    1
    95    40    95    1
    96    41    42    1
    97    41    96    1
    98    41    97    1
    99    42    43    1
   100    42    99    1
   101    42   100    1
   102    43    46    1
   103    43    47    1
   104    43   101    1
   105    44    45    1
   106    44   102    1
   107    45    48    1
   108    45   103    1
   109    46   104    1
   110    46   105    1
   111    47   106    1
   112    47   107    1
   113    47   108    1
   114    48    50    1
   115    48   109    1
   116    49    50    1
   117    49    51    1
   118    49   110    1
   119    50   111    1
   120    51   113    1
   121    51   114    1
   122    52    53    1
   123    52   116    1
   124    53    54    1
   125    53   118    1
   126    54    56    1
   127    54   119    1
   128    55    56    1
   129    55    59    1
   130    55   120    1
   131    56   121    1
   132    57    58    1
   133    57   122    1
   134    58    60    1
   135    58   124    1
   136    59   125    1
   137    59   126    1
   138    60    62    1
   139    60   128    1
   140    61    62    1
   141    61   130    1
   142    61   131    1
   143    62   132    1
