@<TRIPOS>MOLECULE
IMPHY000369
 45 45 0 0 0
SMALL
GASTEIGER

@<TRIPOS>ATOM
      1 O           7.7093    2.9241    0.0000 O.3     1  UNL1       -0.4806
      2 O           6.0621    3.4594    0.0000 O.2     1  UNL1       -0.2510
      3 O           2.5369   -2.8938    0.0000 O.3     1  UNL1       -0.4771
      4 O           4.2690   -2.8938    0.0000 O.2     1  UNL1       -0.2451
      5 C           5.1350    0.6062    0.0000 C.3     1  UNL1       -0.0255
      6 C           6.0010    0.1062    0.0000 C.3     1  UNL1       -0.0379
      7 C           5.4440    1.5573    0.0000 C.3     1  UNL1       -0.0370
      8 C           4.2690    0.1062    0.0000 C.3     1  UNL1       -0.0288
      9 C           6.0010   -0.8938    0.0000 C.3     1  UNL1       -0.0460
     10 C           4.8260    1.5573    0.0000 C.3     1  UNL1       -0.0590
     11 C           6.8671    0.6062    0.0000 C.3     1  UNL1       -0.0619
     12 C           6.4222    1.7652    0.0000 C.3     1  UNL1        0.0453
     13 C           5.1350   -1.3938    0.0000 C.3     1  UNL1       -0.0272
     14 C           3.4030    0.6062    0.0000 C.2     1  UNL1       -0.0835
     15 C           4.2690   -0.8938    0.0000 C.2     1  UNL1       -0.0405
     16 C           2.5369    0.1062    0.0000 C.2     1  UNL1       -0.0649
     17 C           6.7312    2.7162    0.0000 C.2     1  UNL1        0.3047
     18 C           3.4030   -1.3938    0.0000 C.2     1  UNL1        0.0614
     19 C           2.5369   -0.8938    0.0000 C.2     1  UNL1       -0.0478
     20 C           5.1350   -0.3938    0.0000 C.2     1  UNL1       -0.0947
     21 C           3.4030   -2.3938    0.0000 C.2     1  UNL1        0.3370
     22 H           6.5380   -0.2038    0.0000 H       1  UNL1        0.0304
     23 H           5.4224    2.1769    0.0000 H       1  UNL1        0.0276
     24 H           4.8301    1.6436    0.0000 H       1  UNL1        0.0276
     25 H           3.8705   -0.3687    0.0000 H       1  UNL1        0.0313
     26 H           4.6675   -0.3687    0.0000 H       1  UNL1        0.0313
     27 H           6.2131   -1.4764    0.0000 H       1  UNL1        0.0271
     28 H           6.6116   -0.7861    0.0000 H       1  UNL1        0.0271
     29 H           5.4156    1.7488    0.0000 H       1  UNL1        0.0235
     30 H           4.6344    2.1469    0.0000 H       1  UNL1        0.0235
     31 H           4.2363    1.3657    0.0000 H       1  UNL1        0.0235
     32 H           7.1771    0.0693    0.0000 H       1  UNL1        0.0233
     33 H           7.4040    0.9162    0.0000 H       1  UNL1        0.0233
     34 H           6.5571    1.1431    0.0000 H       1  UNL1        0.0233
     35 H           4.7365   -1.8687    0.0000 H       1  UNL1        0.0313
     36 H           5.5335   -1.8687    0.0000 H       1  UNL1        0.0313
     37 H           6.4438    1.1456    0.0000 H       1  UNL1        0.0378
     38 H           7.0361    1.6789    0.0000 H       1  UNL1        0.0378
     39 H           3.4030    1.2262    0.0000 H       1  UNL1        0.0572
     40 H           2.0000    0.4162    0.0000 H       1  UNL1        0.0615
     41 H           2.0000   -1.2038    0.0000 H       1  UNL1        0.0626
     42 H           5.6720   -0.7038    0.0000 H       1  UNL1        0.0538
     43 H           5.1350    0.2262    0.0000 H       1  UNL1        0.0538
     44 H           7.9009    3.5138    0.0000 H       1  UNL1        0.2951
     45 H           2.5369   -3.5138    0.0000 H       1  UNL1        0.2954
@<TRIPOS>BOND
     1     1    17    1
     2     1    44    1
     3     2    17    2
     4     3    21    1
     5     3    45    1
     6     4    21    2
     7     5     6    1
     8     5     7    1
     9     5     8    1
    10     5    10    1
    11     6     9    1
    12     6    11    1
    13     6    22    1
    14     7    12    1
    15     7    23    1
    16     7    24    1
    17     8    14    1
    18     8    25    1
    19     8    26    1
    20     9    13    1
    21     9    27    1
    22     9    28    1
    23    10    29    1
    24    10    30    1
    25    10    31    1
    26    11    32    1
    27    11    33    1
    28    11    34    1
    29    12    17    1
    30    12    37    1
    31    12    38    1
    32    13    15    1
    33    13    35    1
    34    13    36    1
    35    14    16    2
    36    14    39    1
    37    15    18    1
    38    15    20    2
    39    16    19    1
    40    16    40    1
    41    18    19    2
    42    18    21    1
    43    19    41    1
    44    20    42    1
    45    20    43    1
