@<TRIPOS>MOLECULE
IMPHY010826
 31 33 0 0 0
SMALL
GASTEIGER

@<TRIPOS>ATOM
      1 O           7.3215   -5.5053    0.0000 O.3     1  UNL1       -0.3513
      2 C           6.2289   -4.7249    0.0000 C.3     1  UNL1        0.1503
      3 C           6.6404   -3.4621    0.0000 C.3     1  UNL1        0.0967
      4 C           7.9741   -3.4621    0.0000 C.3     1  UNL1        0.0741
      5 C           8.3856   -4.7249    0.0000 C.3     1  UNL1        0.1405
      6 C           5.9735   -2.3128    0.0000 C.2     1  UNL1        0.1754
      7 O           6.6404   -1.1493    0.0000 O.2     1  UNL1       -0.2913
      8 C           8.6410   -2.3128    0.0000 C.3     1  UNL1        0.1853
      9 O           9.9748   -2.3128    0.0000 O.3     1  UNL1       -0.2203
     10 C           9.5917   -5.3918    0.0000 C.ar    1  UNL1        0.0078
     11 C          10.7410   -4.7391    0.0000 C.ar    1  UNL1        0.0381
     12 C          11.8903   -5.3918    0.0000 C.ar    1  UNL1        0.1721
     13 C          11.8903   -6.7255    0.0000 C.ar    1  UNL1        0.1724
     14 C          10.7410   -7.3782    0.0000 C.ar    1  UNL1        0.0398
     15 C           9.5917   -6.7255    0.0000 C.ar    1  UNL1        0.0014
     16 C           4.6540   -2.3128    0.0000 C.ar    1  UNL1        0.0410
     17 C           3.9871   -3.4621    0.0000 C.ar    1  UNL1        0.0431
     18 C           2.6533   -3.4621    0.0000 C.ar    1  UNL1        0.1755
     19 C           2.0006   -2.3128    0.0000 C.ar    1  UNL1        0.2061
     20 C           2.6533   -1.1493    0.0000 C.ar    1  UNL1        0.1755
     21 C           3.9871   -1.1493    0.0000 C.ar    1  UNL1        0.0431
     22 O          13.0396   -4.7391    0.0000 O.3     1  UNL1       -0.4684
     23 C          14.1889   -5.3918    0.0000 C.3     1  UNL1        0.2526
     24 O          13.0396   -7.3782    0.0000 O.3     1  UNL1       -0.4684
     25 C          13.0396   -8.7120    0.0000 C.3     1  UNL1        0.2526
     26 O           2.0006   -4.6114    0.0000 O.3     1  UNL1       -0.4683
     27 C           2.6533   -5.7607    0.0000 C.3     1  UNL1        0.2526
     28 O           0.6669   -2.3128    0.0000 O.3     1  UNL1       -0.4654
     29 C           0.0000   -3.4621    0.0000 C.3     1  UNL1        0.2528
     30 O           2.0006    0.0000    0.0000 O.3     1  UNL1       -0.4683
     31 C           0.6669    0.0000    0.0000 C.3     1  UNL1        0.2526
@<TRIPOS>BOND
     1     1     2    1
     2     1     5    1
     3     2     3    1
     4     3     6    1
     5     3     4    1
     6     4     5    1
     7     4     8    1
     8     5    10    1
     9     6    16    1
    10     6     7    2
    11     8     9    1
    12    10    11   ar
    13    10    15   ar
    14    11    12   ar
    15    12    13   ar
    16    12    22    1
    17    13    14   ar
    18    13    24    1
    19    14    15   ar
    20    16    17   ar
    21    16    21   ar
    22    17    18   ar
    23    18    19   ar
    24    18    26    1
    25    19    20   ar
    26    19    28    1
    27    20    21   ar
    28    20    30    1
    29    22    23    1
    30    24    25    1
    31    26    27    1
    32    28    29    1
    33    30    31    1
