@<TRIPOS>MOLECULE
IMPHY015255
 25 25 0 0 0
SMALL
GASTEIGER

@<TRIPOS>ATOM
      1 O           4.5981    1.8450    0.0000 O.3     1  UNL1       -0.5065
      2 C           3.7320    0.3450    0.0000 C.ar    1  UNL1       -0.0059
      3 C           4.5981   -1.1550    0.0000 C.ar    1  UNL1       -0.0471
      4 C           5.4641   -0.6550    0.0000 C.ar    1  UNL1       -0.0441
      5 C           2.8660    0.8450    0.0000 C.3     1  UNL1       -0.0271
      6 C           3.7320   -0.6550    0.0000 C.ar    1  UNL1       -0.0520
      7 C           4.5981    0.8450    0.0000 C.ar    1  UNL1        0.1203
      8 C           5.4641    0.3450    0.0000 C.ar    1  UNL1       -0.0167
      9 C           4.5981   -2.1550    0.0000 C.3     1  UNL1       -0.0394
     10 C           6.3301   -1.1550    0.0000 C.3     1  UNL1       -0.0393
     11 C           2.0000    0.3450    0.0000 C.3     1  UNL1       -0.0611
     12 H           3.2646    1.3200    0.0000 H       1  UNL1        0.0312
     13 H           2.4675    1.3200    0.0000 H       1  UNL1        0.0312
     14 H           3.1951   -0.9650    0.0000 H       1  UNL1        0.0624
     15 H           6.0010    0.6550    0.0000 H       1  UNL1        0.0657
     16 H           3.9781   -2.1550    0.0000 H       1  UNL1        0.0278
     17 H           4.5981   -2.7750    0.0000 H       1  UNL1        0.0278
     18 H           5.2181   -2.1550    0.0000 H       1  UNL1        0.0278
     19 H           1.6900    0.8819    0.0000 H       1  UNL1        0.0233
     20 H           1.4631    0.0350    0.0000 H       1  UNL1        0.0233
     21 H           2.3100   -0.1919    0.0000 H       1  UNL1        0.0233
     22 H           6.0201   -1.6919    0.0000 H       1  UNL1        0.0278
     23 H           6.8671   -1.4650    0.0000 H       1  UNL1        0.0278
     24 H           6.6401   -0.6181    0.0000 H       1  UNL1        0.0278
     25 H           5.1350    2.1550    0.0000 H       1  UNL1        0.2921
@<TRIPOS>BOND
     1     1     7    1
     2     1    25    1
     3     2     5    1
     4     2     6   ar
     5     2     7   ar
     6     3     4   ar
     7     3     6   ar
     8     3     9    1
     9     4     8   ar
    10     4    10    1
    11     5    11    1
    12     5    12    1
    13     5    13    1
    14     6    14    1
    15     7     8   ar
    16     8    15    1
    17     9    16    1
    18     9    17    1
    19     9    18    1
    20    10    22    1
    21    10    23    1
    22    10    24    1
    23    11    19    1
    24    11    20    1
    25    11    21    1
