@<TRIPOS>MOLECULE
IMPHY005688
 50 53 0 0 0
SMALL
GASTEIGER

@<TRIPOS>ATOM
      1 O           6.8671    1.4746    0.0000 O.3     1  UNL1       -0.3875
      2 O           2.5369   -0.0254    0.0000 O.3     1  UNL1       -0.4800
      3 O           3.4030    1.4746    0.0000 O.2     1  UNL1       -0.2500
      4 O          10.9454   -0.1195    0.0000 O.2     1  UNL1       -0.4708
      5 C           5.1350   -0.5254    0.0000 C.3     1  UNL1       -0.0027
      6 C           4.2690   -0.0254    0.0000 C.3     1  UNL1        0.0922
      7 C           6.0010   -0.0254    0.0000 C.3     1  UNL1        0.0012
      8 C           4.2687   -1.0258    0.0000 C.3     1  UNL1       -0.0258
      9 C           6.9110   -0.5322    0.0000 C.3     1  UNL1       -0.0232
     10 C           5.1190   -1.5669    0.0000 C.3     1  UNL1       -0.0454
     11 C           6.9191   -1.5738    0.0000 C.3     1  UNL1       -0.0381
     12 C           6.0010    0.9746    0.0000 C.3     1  UNL1        0.0772
     13 C           6.0170   -2.0946    0.0000 C.3     1  UNL1       -0.0494
     14 C           4.2690    0.9746    0.0000 C.2     1  UNL1       -0.0683
     15 C           3.4030    0.4746    0.0000 C.2     1  UNL1        0.3153
     16 C           7.9110   -0.5207    0.0000 C.3     1  UNL1       -0.0429
     17 C           5.1350    1.4746    0.0000 C.2     1  UNL1       -0.0585
     18 C           7.4010    0.3395    0.0000 C.3     1  UNL1       -0.0589
     19 C           7.7870   -2.0705    0.0000 C.3     1  UNL1       -0.0619
     20 C           8.4009    0.3511    0.0000 C.3     1  UNL1       -0.0242
     21 C           9.4009    0.3627    0.0000 C.ar    1  UNL1       -0.0097
     22 C           9.9792    1.1784    0.0000 C.ar    1  UNL1       -0.0208
     23 C           9.9980   -0.4395    0.0000 C.ar    1  UNL1        0.0948
     24 C          10.9338    0.8804    0.0000 C.ar    1  UNL1        0.0919
     25 H           6.7339    0.4053    0.0000 H       1  UNL1        0.0340
     26 H           3.6581   -1.1334    0.0000 H       1  UNL1        0.0285
     27 H           4.4808   -1.6084    0.0000 H       1  UNL1        0.0285
     28 H           4.5098   -1.4514    0.0000 H       1  UNL1        0.0271
     29 H           4.9009   -2.1473    0.0000 H       1  UNL1        0.0271
     30 H           6.9203   -2.1938    0.0000 H       1  UNL1        0.0303
     31 H           6.0010    1.5946    0.0000 H       1  UNL1        0.0641
     32 H           5.6160   -2.5675    0.0000 H       1  UNL1        0.0268
     33 H           6.4143   -2.5706    0.0000 H       1  UNL1        0.0268
     34 H           3.7320    1.2846    0.0000 H       1  UNL1        0.0581
     35 H           7.8104   -1.1324    0.0000 H       1  UNL1        0.0274
     36 H           8.4960   -0.7260    0.0000 H       1  UNL1        0.0274
     37 H           5.1350    2.0946    0.0000 H       1  UNL1        0.0595
     38 H           7.9415    0.0358    0.0000 H       1  UNL1        0.0235
     39 H           7.7048    0.8800    0.0000 H       1  UNL1        0.0235
     40 H           6.8605    0.6433    0.0000 H       1  UNL1        0.0235
     41 H           7.4791   -2.6086    0.0000 H       1  UNL1        0.0233
     42 H           8.3251   -2.3784    0.0000 H       1  UNL1        0.0233
     43 H           8.0949   -1.5324    0.0000 H       1  UNL1        0.0233
     44 H           8.5015    0.9629    0.0000 H       1  UNL1        0.0314
     45 H           7.8159    0.5564    0.0000 H       1  UNL1        0.0314
     46 H           6.8671    2.0946    0.0000 H       1  UNL1        0.2102
     47 H           2.0000    0.2846    0.0000 H       1  UNL1        0.2951
     48 H           9.7808    1.7658    0.0000 H       1  UNL1        0.0652
     49 H           9.8132   -1.0313    0.0000 H       1  UNL1        0.1032
     50 H          11.4312    1.2506    0.0000 H       1  UNL1        0.1029
@<TRIPOS>BOND
     1    12     1    1
     2     1    46    1
     3     2    15    1
     4     2    47    1
     5     3    15    2
     6     4    23   ar
     7     4    24   ar
     8     5     6    1
     9     5     7    1
    10     5     8    1
    11     5    10    1
    12     6     8    1
    13     6    14    1
    14     6    15    1
    15     7     9    1
    16     7    12    1
    17     7    25    1
    18     8    26    1
    19     8    27    1
    20     9    11    1
    21     9    16    1
    22     9    18    1
    23    10    13    1
    24    10    28    1
    25    10    29    1
    26    11    13    1
    27    11    19    1
    28    11    30    1
    29    12    17    1
    30    12    31    1
    31    13    32    1
    32    13    33    1
    33    14    17    2
    34    14    34    1
    35    16    20    1
    36    16    35    1
    37    16    36    1
    38    17    37    1
    39    18    38    1
    40    18    39    1
    41    18    40    1
    42    19    41    1
    43    19    42    1
    44    19    43    1
    45    20    21    1
    46    20    44    1
    47    20    45    1
    48    21    22   ar
    49    21    23   ar
    50    22    24   ar
    51    22    48    1
    52    23    49    1
    53    24    50    1
