@<TRIPOS>MOLECULE
IMPHY002553
 42 45 0 0 0
SMALL
GASTEIGER

@<TRIPOS>ATOM
      1 O           3.9061   -1.9174    0.0000 O.3     1  UNL1       -0.4814
      2 O           7.4260   -1.9174    0.0000 O.2     1  UNL1       -0.4618
      3 O           5.6660    1.1173    0.0000 O.3     1  UNL1       -0.5052
      4 O           7.4144    1.1519    0.0000 O.2     1  UNL1       -0.2863
      5 O          10.0680   -1.3552    0.0000 O.3     1  UNL1       -0.5060
      6 O          11.7884    1.6515    0.0000 O.3     1  UNL1       -0.5066
      7 C           3.0000   -1.4035    0.0000 C.3     1  UNL1        0.1235
      8 C           4.8000   -0.3827    0.0000 C.ar    1  UNL1        0.0588
      9 C           4.8000   -1.3827    0.0000 C.ar    1  UNL1        0.1359
     10 C           3.0000   -0.3619    0.0000 C.2     1  UNL1       -0.0408
     11 C           6.5320   -0.3827    0.0000 C.ar    1  UNL1        0.1066
     12 C           3.9061    0.1520    0.0000 C.2     1  UNL1       -0.0478
     13 C           2.0000   -1.4074    0.0000 C.3     1  UNL1       -0.0215
     14 C           2.5033   -2.2715    0.0000 C.3     1  UNL1       -0.0215
     15 C           5.6660    0.1173    0.0000 C.ar    1  UNL1        0.1418
     16 C           6.5320   -1.3827    0.0000 C.ar    1  UNL1        0.1454
     17 C           5.6660   -1.8827    0.0000 C.ar    1  UNL1        0.0239
     18 C           7.4260    0.1520    0.0000 C.ar    1  UNL1        0.2038
     19 C           8.3321   -0.3619    0.0000 C.ar    1  UNL1        0.0679
     20 C           9.1962    0.1415    0.0000 C.ar    1  UNL1        0.0304
     21 C           8.3321   -1.4035    0.0000 C.ar    1  UNL1        0.1040
     22 C          10.0641   -0.3552    0.0000 C.ar    1  UNL1        0.1282
     23 C           9.1923    1.1414    0.0000 C.ar    1  UNL1       -0.0469
     24 C          10.9282    0.1481    0.0000 C.ar    1  UNL1        0.0219
     25 C          10.0564    1.6448    0.0000 C.ar    1  UNL1       -0.0194
     26 C          10.9243    1.1481    0.0000 C.ar    1  UNL1        0.1204
     27 H           2.4643   -0.0498    0.0000 H       1  UNL1        0.0611
     28 H           3.9132    0.7719    0.0000 H       1  UNL1        0.0624
     29 H           1.9976   -0.7874    0.0000 H       1  UNL1        0.0271
     30 H           1.3800   -1.4098    0.0000 H       1  UNL1        0.0271
     31 H           1.9652   -1.9635    0.0000 H       1  UNL1        0.0271
     32 H           2.1954   -2.8096    0.0000 H       1  UNL1        0.0271
     33 H           3.0415   -2.5794    0.0000 H       1  UNL1        0.0271
     34 H           2.0024   -2.0274    0.0000 H       1  UNL1        0.0271
     35 H           5.6660   -2.5027    0.0000 H       1  UNL1        0.0691
     36 H           8.8678   -1.7156    0.0000 H       1  UNL1        0.1037
     37 H           5.1291    1.4273    0.0000 H       1  UNL1        0.2922
     38 H           8.6542    1.4494    0.0000 H       1  UNL1        0.0626
     39 H          11.4663   -0.1598    0.0000 H       1  UNL1        0.0691
     40 H          10.0540    2.2648    0.0000 H       1  UNL1        0.0654
     41 H          10.6061   -1.6631    0.0000 H       1  UNL1        0.2922
     42 H          11.7860    2.2715    0.0000 H       1  UNL1        0.2921
@<TRIPOS>BOND
     1     1     7    1
     2     1     9    1
     3     2    16   ar
     4     2    21   ar
     5     3    15    1
     6     3    37    1
     7     4    18    2
     8     5    22    1
     9     5    41    1
    10     6    26    1
    11     6    42    1
    12     7    10    1
    13     7    13    1
    14     7    14    1
    15     8     9   ar
    16     8    12    1
    17     8    15   ar
    18     9    17   ar
    19    10    12    2
    20    10    27    1
    21    11    15   ar
    22    11    16   ar
    23    11    18   ar
    24    12    28    1
    25    13    29    1
    26    13    30    1
    27    13    34    1
    28    14    31    1
    29    14    32    1
    30    14    33    1
    31    16    17   ar
    32    17    35    1
    33    18    19   ar
    34    19    20    1
    35    19    21   ar
    36    20    22   ar
    37    20    23   ar
    38    21    36    1
    39    22    24   ar
    40    23    25   ar
    41    23    38    1
    42    24    26   ar
    43    24    39    1
    44    25    26   ar
    45    25    40    1
