@<TRIPOS>MOLECULE
IMPHY001941
 39 41 0 0 0
SMALL
GASTEIGER

@<TRIPOS>ATOM
      1 C           3.8001   -0.8152    0.0000 C.3     1  UNL1       -0.0278
      2 C           3.7841    0.2263    0.0000 C.3     1  UNL1       -0.0283
      3 C           2.9180    0.7263    0.0000 C.3     1  UNL1       -0.0079
      4 C           3.7841    2.2263    0.0000 C.3     1  UNL1       -0.0163
      5 C           2.9021   -1.3430    0.0000 C.3     1  UNL1       -0.0350
      6 C           4.6501    0.7263    0.0000 C.3     1  UNL1       -0.0486
      7 C           2.9180    1.7263    0.0000 C.2     1  UNL1       -0.0671
      8 C           4.6501    1.7263    0.0000 C.3     1  UNL1       -0.0459
      9 C           2.0080    0.2194    0.0000 C.3     1  UNL1       -0.0434
     10 C           2.0000   -0.8222    0.0000 C.3     1  UNL1       -0.0489
     11 C           2.0520    1.2263    0.0000 C.3     1  UNL1       -0.0556
     12 C           2.9059   -2.3430    0.0000 C.3     1  UNL1       -0.0436
     13 C           2.0520    2.2263    0.0000 C.2     1  UNL1       -0.0986
     14 C           2.0418   -2.8463    0.0000 C.3     1  UNL1       -0.0624
     15 C           3.7739   -2.8396    0.0000 C.3     1  UNL1       -0.0624
     16 H           4.5411   -1.2317    0.0000 H       1  UNL1        0.0312
     17 H           4.5202   -0.1987    0.0000 H       1  UNL1        0.0312
     18 H           3.7841    3.0763    0.0000 H       1  UNL1        0.0349
     19 H           2.3657   -1.6540    0.0000 H       1  UNL1        0.0306
     20 H           4.8621    0.1437    0.0000 H       1  UNL1        0.0268
     21 H           5.2607    0.8340    0.0000 H       1  UNL1        0.0268
     22 H           5.2607    1.6186    0.0000 H       1  UNL1        0.0271
     23 H           4.8621    2.3089    0.0000 H       1  UNL1        0.0271
     24 H           1.8035    0.8047    0.0000 H       1  UNL1        0.0274
     25 H           1.3964    0.1181    0.0000 H       1  UNL1        0.0274
     26 H           1.3900   -0.7114    0.0000 H       1  UNL1        0.0268
     27 H           1.7864   -1.4042    0.0000 H       1  UNL1        0.0268
     28 H           2.3620    1.7632    0.0000 H       1  UNL1        0.0238
     29 H           1.5151    1.5363    0.0000 H       1  UNL1        0.0238
     30 H           1.7420    0.6894    0.0000 H       1  UNL1        0.0238
     31 H           2.9083   -2.9630    0.0000 H       1  UNL1        0.0298
     32 H           2.0520    2.8463    0.0000 H       1  UNL1        0.0535
     33 H           1.5151    1.9163    0.0000 H       1  UNL1        0.0535
     34 H           1.7298   -2.3106    0.0000 H       1  UNL1        0.0232
     35 H           1.5061   -3.1584    0.0000 H       1  UNL1        0.0232
     36 H           2.3539   -3.3820    0.0000 H       1  UNL1        0.0232
     37 H           3.4660   -3.3777    0.0000 H       1  UNL1        0.0232
     38 H           4.3120   -3.1476    0.0000 H       1  UNL1        0.0232
     39 H           4.0818   -2.3015    0.0000 H       1  UNL1        0.0232
@<TRIPOS>BOND
     1     1     2    1
     2     1     4    1
     3     1     5    1
     4     1    16    1
     5     2     3    1
     6     2     6    1
     7     2    17    1
     8     3     7    1
     9     3     9    1
    10     3    11    1
    11     4     7    1
    12     4     8    1
    13     4    18    1
    14     5    10    1
    15     5    12    1
    16     5    19    1
    17     6     8    1
    18     6    20    1
    19     6    21    1
    20     7    13    2
    21     8    22    1
    22     8    23    1
    23     9    10    1
    24     9    24    1
    25     9    25    1
    26    10    26    1
    27    10    27    1
    28    11    28    1
    29    11    29    1
    30    11    30    1
    31    12    14    1
    32    12    15    1
    33    12    31    1
    34    13    32    1
    35    13    33    1
    36    14    34    1
    37    14    35    1
    38    14    36    1
    39    15    37    1
    40    15    38    1
    41    15    39    1
