@<TRIPOS>MOLECULE
IMPHY005667
 83 89 0 0 0
SMALL
GASTEIGER

@<TRIPOS>ATOM
      1 O           7.4735    2.7077    0.0000 O.3     1  UNL1       -0.3401
      2 O           8.4813    1.9648    0.0000 O.3     1  UNL1       -0.3373
      3 O           8.1660   -0.1461    0.0000 O.3     1  UNL1       -0.3859
      4 O           2.6198   -4.1553    0.0000 O.3     1  UNL1       -0.3912
      5 O          10.6537    3.3848    0.0000 O.3     1  UNL1       -0.3865
      6 C           4.9010   -0.4980    0.0000 C.3     1  UNL1       -0.0193
      7 C           4.3277   -1.4116    0.0000 C.3     1  UNL1       -0.0193
      8 C           5.9362   -0.5201    0.0000 C.3     1  UNL1       -0.0264
      9 C           3.8227   -0.4580    0.0000 C.3     1  UNL1       -0.0401
     10 C           6.4661    0.3695    0.0000 C.3     1  UNL1        0.0081
     11 C           4.8396   -2.3609    0.0000 C.3     1  UNL1       -0.0273
     12 C           5.9943    1.2445    0.0000 C.3     1  UNL1       -0.0158
     13 C           4.4095    0.4134    0.0000 C.3     1  UNL1       -0.0460
     14 C           3.2054   -1.3616    0.0000 C.3     1  UNL1       -0.0442
     15 C           6.4699   -1.4573    0.0000 C.3     1  UNL1       -0.0488
     16 C           4.9598    1.2905    0.0000 C.3     1  UNL1       -0.0461
     17 C           6.6794    1.9648    0.0000 C.3     1  UNL1        0.0244
     18 C           7.4444    0.5462    0.0000 C.3     1  UNL1        0.1153
     19 C           5.9180   -2.3840    0.0000 C.3     1  UNL1       -0.0488
     20 C           4.2647   -3.3262    0.0000 C.3     1  UNL1       -0.0056
     21 C           7.5804    1.5309    0.0000 C.3     1  UNL1        0.2010
     22 C           2.6082   -2.3133    0.0000 C.3     1  UNL1       -0.0258
     23 C           6.9407   -0.5107    0.0000 C.3     1  UNL1       -0.0562
     24 C           3.1415   -3.3022    0.0000 C.3     1  UNL1        0.0606
     25 C           6.4569    2.9397    0.0000 C.3     1  UNL1       -0.0331
     26 C           5.5197    2.1247    0.0000 C.3     1  UNL1       -0.0585
     27 C           8.0804    3.7215    0.0000 C.3     1  UNL1        0.0912
     28 C           7.0804    3.7215    0.0000 C.3     1  UNL1       -0.0209
     29 C           4.2472   -4.3260    0.0000 C.3     1  UNL1       -0.0572
     30 C           5.1218   -3.8412    0.0000 C.3     1  UNL1       -0.0572
     31 C           8.7038    2.9397    0.0000 C.3     1  UNL1        0.1162
     32 C           5.4819    3.1622    0.0000 C.3     1  UNL1       -0.0619
     33 C           9.6788    3.1622    0.0000 C.3     1  UNL1        0.0890
     34 C           9.9013    2.1873    0.0000 C.3     1  UNL1       -0.0338
     35 C           9.4562    4.1372    0.0000 C.3     1  UNL1       -0.0338
     36 H           6.7862   -0.5284    0.0000 H       1  UNL1        0.0313
     37 H           3.7376    0.1561    0.0000 H       1  UNL1        0.0276
     38 H           3.2327   -0.6486    0.0000 H       1  UNL1        0.0276
     39 H           5.2517   -3.1044    0.0000 H       1  UNL1        0.0312
     40 H           3.9485    0.8279    0.0000 H       1  UNL1        0.0271
     41 H           3.9222    0.0301    0.0000 H       1  UNL1        0.0271
     42 H           3.3385   -0.7561    0.0000 H       1  UNL1        0.0272
     43 H           2.6315   -1.1268    0.0000 H       1  UNL1        0.0272
     44 H           6.9404   -1.8611    0.0000 H       1  UNL1        0.0268
     45 H           6.9482   -1.0629    0.0000 H       1  UNL1        0.0268
     46 H           5.0930    1.8960    0.0000 H       1  UNL1        0.0271
     47 H           4.3860    1.5253    0.0000 H       1  UNL1        0.0271
     48 H           5.9136    2.3336    0.0000 H       1  UNL1        0.0362
     49 H           7.2653   -0.0474    0.0000 H       1  UNL1        0.0653
     50 H           5.7988   -2.9924    0.0000 H       1  UNL1        0.0268
     51 H           6.4971   -2.6054    0.0000 H       1  UNL1        0.0268
     52 H           2.1472   -1.8988    0.0000 H       1  UNL1        0.0290
     53 H           2.1209   -2.6966    0.0000 H       1  UNL1        0.0290
     54 H           6.3950   -0.8049    0.0000 H       1  UNL1        0.0236
     55 H           7.2350   -1.0564    0.0000 H       1  UNL1        0.0236
     56 H           7.4864   -0.2164    0.0000 H       1  UNL1        0.0236
     57 H           3.4389   -3.8462    0.0000 H       1  UNL1        0.0599
     58 H           6.2521    3.5249    0.0000 H       1  UNL1        0.0303
     59 H           6.0654    2.4189    0.0000 H       1  UNL1        0.0235
     60 H           5.2254    2.6704    0.0000 H       1  UNL1        0.0235
     61 H           4.9739    1.8304    0.0000 H       1  UNL1        0.0235
     62 H           8.2695    4.5502    0.0000 H       1  UNL1        0.0624
     63 H           7.2183    4.3260    0.0000 H       1  UNL1        0.0294
     64 H           6.5218    3.9906    0.0000 H       1  UNL1        0.0294
     65 H           4.8025   -4.3726    0.0000 H       1  UNL1        0.0236
     66 H           5.6533   -4.1606    0.0000 H       1  UNL1        0.0236
     67 H           5.4412   -3.3098    0.0000 H       1  UNL1        0.0236
     68 H           3.6273   -4.3152    0.0000 H       1  UNL1        0.0236
     69 H           4.2364   -4.9459    0.0000 H       1  UNL1        0.0236
     70 H           4.8671   -4.3368    0.0000 H       1  UNL1        0.0236
     71 H           9.3049    2.3387    0.0000 H       1  UNL1        0.0652
     72 H           8.7614    0.0267    0.0000 H       1  UNL1        0.2100
     73 H           5.6199    3.7667    0.0000 H       1  UNL1        0.0233
     74 H           4.8775    3.3002    0.0000 H       1  UNL1        0.0233
     75 H           5.3440    2.5578    0.0000 H       1  UNL1        0.0233
     76 H           2.0000   -4.1397    0.0000 H       1  UNL1        0.2098
     77 H           9.2968    2.0493    0.0000 H       1  UNL1        0.0258
     78 H          10.0393    1.5828    0.0000 H       1  UNL1        0.0258
     79 H          10.5058    2.3253    0.0000 H       1  UNL1        0.0258
     80 H          10.0607    4.2751    0.0000 H       1  UNL1        0.0258
     81 H           9.3183    4.7416    0.0000 H       1  UNL1        0.0258
     82 H           8.8518    3.9992    0.0000 H       1  UNL1        0.0258
     83 H          10.8365    3.9772    0.0000 H       1  UNL1        0.2102
@<TRIPOS>BOND
     1    21     1    1
     2     1    27    1
     3     2    21    1
     4     2    31    1
     5    18     3    1
     6     3    72    1
     7    24     4    1
     8     4    76    1
     9     5    33    1
    10     5    83    1
    11     6     7    1
    12     6     8    1
    13     6     9    1
    14     6    13    1
    15     7     9    1
    16     7    11    1
    17     7    14    1
    18     8    10    1
    19     8    15    1
    20     8    36    1
    21     9    37    1
    22     9    38    1
    23    10    12    1
    24    10    18    1
    25    10    23    1
    26    11    19    1
    27    11    20    1
    28    11    39    1
    29    12    16    1
    30    12    17    1
    31    12    26    1
    32    13    16    1
    33    13    40    1
    34    13    41    1
    35    14    22    1
    36    14    42    1
    37    14    43    1
    38    15    19    1
    39    15    44    1
    40    15    45    1
    41    16    46    1
    42    16    47    1
    43    17    21    1
    44    17    25    1
    45    17    48    1
    46    18    21    1
    47    18    49    1
    48    19    50    1
    49    19    51    1
    50    20    24    1
    51    20    29    1
    52    20    30    1
    53    22    24    1
    54    22    52    1
    55    22    53    1
    56    23    54    1
    57    23    55    1
    58    23    56    1
    59    24    57    1
    60    25    28    1
    61    25    32    1
    62    25    58    1
    63    26    59    1
    64    26    60    1
    65    26    61    1
    66    27    28    1
    67    27    31    1
    68    27    62    1
    69    28    63    1
    70    28    64    1
    71    29    68    1
    72    29    69    1
    73    29    70    1
    74    30    65    1
    75    30    66    1
    76    30    67    1
    77    31    33    1
    78    31    71    1
    79    32    73    1
    80    32    74    1
    81    32    75    1
    82    33    34    1
    83    33    35    1
    84    34    77    1
    85    34    78    1
    86    34    79    1
    87    35    80    1
    88    35    81    1
    89    35    82    1
