@<TRIPOS>MOLECULE
IMPHY003180
 53 58 0 0 0
SMALL
GASTEIGER

@<TRIPOS>ATOM
      1 CL          2.7599    0.0000    0.0000 Cl      1  UNL1       -0.1454
      2 O           6.1528    4.4874    0.0000 O.3     2  UNL2       -0.3908
      3 O           5.3710    7.7019    0.0000 O.3     2  UNL2       -0.3908
      4 O           2.4220    2.8079    0.0000 O.3     2  UNL2       -0.3917
      5 N           2.5141    6.8153    0.0000 N.3     2  UNL2       -0.2947
      6 C           3.4082    5.2667    0.0000 C.3     2  UNL2       -0.0005
      7 C           3.8218    5.8288    0.0000 C.3     2  UNL2       -0.0118
      8 C           3.4082    6.2991    0.0000 C.3     2  UNL2        0.0228
      9 C           2.5141    4.7505    0.0000 C.3     2  UNL2       -0.0112
     10 C           4.2154    4.6230    0.0000 C.3     2  UNL2       -0.0005
     11 C           4.2154    6.9428    0.0000 C.3     2  UNL2        0.0081
     12 C           2.1700    5.8058    0.0000 C.3     2  UNL2        0.0152
     13 C           1.6200    5.2667    0.0000 C.3     2  UNL2       -0.0122
     14 C           2.8353    6.0352    0.0000 C.3     2  UNL2       -0.0303
     15 C           3.4089    4.2457    0.0000 C.3     2  UNL2       -0.0191
     16 C           5.2219    4.8527    0.0000 C.3     2  UNL2        0.0680
     17 C           1.6200    6.2991    0.0000 C.3     2  UNL2        0.0053
     18 C           5.2219    6.7131    0.0000 C.3     2  UNL2        0.0688
     19 C           5.6699    5.7829    0.0000 C.3     2  UNL2        0.0325
     20 C           4.3495    6.3335    0.0000 C.3     2  UNL2       -0.0251
     21 C           1.6193    4.3375    0.0000 C.3     2  UNL2       -0.0199
     22 C           2.4260    3.8078    0.0000 C.3     2  UNL2        0.0564
     23 C           5.1296    6.3335    0.0000 C.2     2  UNL2       -0.0681
     24 C           0.6200    5.2670    0.0000 C.3     2  UNL2       -0.0580
     25 C           4.7384    7.2538    0.0000 C.2     2  UNL2       -0.0990
     26 H           3.3619    6.9174    0.0000 H       2  UNL2        0.0472
     27 H           2.9444    4.0174    0.0000 H       2  UNL2        0.0328
     28 H           4.2110    3.7730    0.0000 H       2  UNL2        0.0337
     29 H           4.0774    7.5472    0.0000 H       2  UNL2        0.0347
     30 H           1.3200    5.8115    0.0000 H       2  UNL2        0.0466
     31 H           3.1596    6.5637    0.0000 H       2  UNL2        0.0286
     32 H           2.8743    5.4165    0.0000 H       2  UNL2        0.0286
     33 H           3.5800    3.6498    0.0000 H       2  UNL2        0.0296
     34 H           4.0228    4.3323    0.0000 H       2  UNL2        0.0296
     35 H           5.3143    4.2396    0.0000 H       2  UNL2        0.0603
     36 H           1.4080    6.8817    0.0000 H       2  UNL2        0.0432
     37 H           1.0094    6.1914    0.0000 H       2  UNL2        0.0432
     38 H           5.7991    6.9396    0.0000 H       2  UNL2        0.0603
     39 H           6.5199    5.7829    0.0000 H       2  UNL2        0.0396
     40 H           4.5144    6.9312    0.0000 H       2  UNL2        0.0316
     41 H           3.8172    6.6514    0.0000 H       2  UNL2        0.0316
     42 H           1.0110    4.4571    0.0000 H       2  UNL2        0.0296
     43 H           1.3850    3.7635    0.0000 H       2  UNL2        0.0296
     44 H           1.8798    3.5145    0.0000 H       2  UNL2        0.0593
     45 H           0.6202    5.8870    0.0000 H       2  UNL2        0.0236
     46 H           0.0000    5.2673    0.0000 H       2  UNL2        0.0236
     47 H           0.6198    4.6470    0.0000 H       2  UNL2        0.0236
     48 H           6.2452    3.8743    0.0000 H       2  UNL2        0.2098
     49 H           5.9481    7.9284    0.0000 H       2  UNL2        0.2098
     50 H           5.1112    7.7492    0.0000 H       2  UNL2        0.0535
     51 H           4.1230    7.3291    0.0000 H       2  UNL2        0.0535
     52 H           1.8838    2.5000    0.0000 H       2  UNL2        0.2098
     53 H           3.7599    0.0000    0.0000 H       1  UNL1        0.1454
@<TRIPOS>BOND
     1     1    53    1
     2    16     2    1
     3     2    48    1
     4     3    18    1
     5     3    49    1
     6    22     4    1
     7     4    52    1
     8     5     8    1
     9     5    12    1
    10     5    17    1
    11     6     8    1
    12     6     9    1
    13     6    10    1
    14     6    15    1
    15     7    10    1
    16     7    11    1
    17     7    14    1
    18     7    20    1
    19     8    11    1
    20     8    26    1
    21     9    12    1
    22     9    13    1
    23     9    27    1
    24    10    16    1
    25    10    28    1
    26    11    18    1
    27    11    29    1
    28    12    14    1
    29    12    30    1
    30    13    17    1
    31    13    21    1
    32    13    24    1
    33    14    31    1
    34    14    32    1
    35    15    22    1
    36    15    33    1
    37    15    34    1
    38    16    19    1
    39    16    35    1
    40    17    36    1
    41    17    37    1
    42    18    19    1
    43    18    38    1
    44    19    23    1
    45    19    39    1
    46    20    23    1
    47    20    40    1
    48    20    41    1
    49    21    22    1
    50    21    42    1
    51    21    43    1
    52    22    44    1
    53    23    25    2
    54    24    45    1
    55    24    46    1
    56    24    47    1
    57    25    50    1
    58    25    51    1
