@<TRIPOS>MOLECULE
IMPHY007268
 28 29 0 0 0
SMALL
GASTEIGER

@<TRIPOS>ATOM
      1 O           2.0000    0.2500    0.0000 O.2     1  UNL1       -0.2873
      2 C           2.8660   -1.2500    0.0000 C.ar    1  UNL1        0.0217
      3 C           4.5981    1.7500    0.0000 C.ar    1  UNL1       -0.0249
      4 C           2.8660   -0.2500    0.0000 C.2     1  UNL1        0.1861
      5 C           3.7320    1.2500    0.0000 C.2     1  UNL1       -0.0510
      6 C           3.7320    0.2500    0.0000 C.2     1  UNL1       -0.0138
      7 C           2.0000   -1.7500    0.0000 C.ar    1  UNL1       -0.0509
      8 C           3.7320   -1.7500    0.0000 C.ar    1  UNL1       -0.0509
      9 C           5.4641    1.2500    0.0000 C.ar    1  UNL1       -0.0546
     10 C           4.5981    2.7500    0.0000 C.ar    1  UNL1       -0.0546
     11 C           2.0000   -2.7500    0.0000 C.ar    1  UNL1       -0.0611
     12 C           3.7320   -2.7500    0.0000 C.ar    1  UNL1       -0.0611
     13 C           6.3301    1.7500    0.0000 C.ar    1  UNL1       -0.0612
     14 C           5.4641    3.2500    0.0000 C.ar    1  UNL1       -0.0612
     15 C           2.8660   -3.2500    0.0000 C.ar    1  UNL1       -0.0617
     16 C           6.3301    2.7500    0.0000 C.ar    1  UNL1       -0.0617
     17 H           3.1951    1.5600    0.0000 H       1  UNL1        0.0625
     18 H           4.2690   -0.0600    0.0000 H       1  UNL1        0.0656
     19 H           1.4631   -1.4400    0.0000 H       1  UNL1        0.0625
     20 H           4.2690   -1.4400    0.0000 H       1  UNL1        0.0625
     21 H           5.4641    0.6300    0.0000 H       1  UNL1        0.0623
     22 H           4.0611    3.0600    0.0000 H       1  UNL1        0.0623
     23 H           1.4631   -3.0600    0.0000 H       1  UNL1        0.0618
     24 H           4.2690   -3.0600    0.0000 H       1  UNL1        0.0618
     25 H           6.8671    1.4400    0.0000 H       1  UNL1        0.0618
     26 H           5.4641    3.8700    0.0000 H       1  UNL1        0.0618
     27 H           2.8660   -3.8700    0.0000 H       1  UNL1        0.0618
     28 H           6.8671    3.0600    0.0000 H       1  UNL1        0.0618
@<TRIPOS>BOND
     1     1     4    2
     2     2     4    1
     3     2     7   ar
     4     2     8   ar
     5     3     5    1
     6     3     9   ar
     7     3    10   ar
     8     4     6    1
     9     5     6    2
    10     5    17    1
    11     6    18    1
    12     7    11   ar
    13     7    19    1
    14     8    12   ar
    15     8    20    1
    16     9    13   ar
    17     9    21    1
    18    10    14   ar
    19    10    22    1
    20    11    15   ar
    21    11    23    1
    22    12    15   ar
    23    12    24    1
    24    13    16   ar
    25    13    25    1
    26    14    16   ar
    27    14    26    1
    28    15    27    1
    29    16    28    1
