@<TRIPOS>MOLECULE
IMPHY015355
 59 58 0 0 0
SMALL
GASTEIGER

@<TRIPOS>ATOM
      1 C           5.4641    0.2500    0.0000 C.3     1  UNL1       -0.0528
      2 C           6.3301    0.7500    0.0000 C.3     1  UNL1       -0.0530
      3 C           4.5981    0.7500    0.0000 C.3     1  UNL1       -0.0505
      4 C           7.1962    0.2500    0.0000 C.3     1  UNL1       -0.0531
      5 C           3.7320    0.2500    0.0000 C.3     1  UNL1       -0.0441
      6 C           8.0622    0.7500    0.0000 C.3     1  UNL1       -0.0531
      7 C           8.9282    0.2500    0.0000 C.3     1  UNL1       -0.0531
      8 C           9.7942    0.7500    0.0000 C.3     1  UNL1       -0.0531
      9 C          10.6603    0.2500    0.0000 C.3     1  UNL1       -0.0531
     10 C          11.5263    0.7500    0.0000 C.3     1  UNL1       -0.0531
     11 C          12.3923    0.2500    0.0000 C.3     1  UNL1       -0.0531
     12 C           2.8660    0.7500    0.0000 C.3     1  UNL1       -0.0533
     13 C          13.2583    0.7500    0.0000 C.3     1  UNL1       -0.0531
     14 C          14.1244    0.2500    0.0000 C.3     1  UNL1       -0.0531
     15 C           3.7320   -0.7500    0.0000 C.3     1  UNL1       -0.0624
     16 C          14.9904    0.7500    0.0000 C.3     1  UNL1       -0.0533
     17 C           2.0000    0.2500    0.0000 C.3     1  UNL1       -0.0650
     18 C          15.8564    0.2500    0.0000 C.3     1  UNL1       -0.0559
     19 C          16.7224    0.7500    0.0000 C.3     1  UNL1       -0.0653
     20 H           5.0656   -0.2249    0.0000 H       1  UNL1        0.0265
     21 H           5.8626   -0.2249    0.0000 H       1  UNL1        0.0265
     22 H           6.7287    1.2250    0.0000 H       1  UNL1        0.0265
     23 H           5.9316    1.2250    0.0000 H       1  UNL1        0.0265
     24 H           4.9966    1.2250    0.0000 H       1  UNL1        0.0268
     25 H           4.1996    1.2250    0.0000 H       1  UNL1        0.0268
     26 H           6.7976   -0.2249    0.0000 H       1  UNL1        0.0265
     27 H           7.5947   -0.2249    0.0000 H       1  UNL1        0.0265
     28 H           4.2690   -0.0600    0.0000 H       1  UNL1        0.0298
     29 H           8.4607    1.2250    0.0000 H       1  UNL1        0.0265
     30 H           7.6636    1.2250    0.0000 H       1  UNL1        0.0265
     31 H           8.5297   -0.2249    0.0000 H       1  UNL1        0.0265
     32 H           9.3267   -0.2249    0.0000 H       1  UNL1        0.0265
     33 H          10.1928    1.2250    0.0000 H       1  UNL1        0.0265
     34 H           9.3957    1.2250    0.0000 H       1  UNL1        0.0265
     35 H          10.2617   -0.2249    0.0000 H       1  UNL1        0.0265
     36 H          11.0588   -0.2249    0.0000 H       1  UNL1        0.0265
     37 H          11.9248    1.2250    0.0000 H       1  UNL1        0.0265
     38 H          11.1278    1.2250    0.0000 H       1  UNL1        0.0265
     39 H          11.9938   -0.2249    0.0000 H       1  UNL1        0.0265
     40 H          12.7908   -0.2249    0.0000 H       1  UNL1        0.0265
     41 H           3.2646    1.2250    0.0000 H       1  UNL1        0.0265
     42 H           2.4675    1.2250    0.0000 H       1  UNL1        0.0265
     43 H          13.6569    1.2250    0.0000 H       1  UNL1        0.0265
     44 H          12.8598    1.2250    0.0000 H       1  UNL1        0.0265
     45 H          13.7258   -0.2249    0.0000 H       1  UNL1        0.0265
     46 H          14.5229   -0.2249    0.0000 H       1  UNL1        0.0265
     47 H           3.1120   -0.7500    0.0000 H       1  UNL1        0.0232
     48 H           3.7320   -1.3700    0.0000 H       1  UNL1        0.0232
     49 H           4.3520   -0.7500    0.0000 H       1  UNL1        0.0232
     50 H          15.3889    1.2250    0.0000 H       1  UNL1        0.0265
     51 H          14.5919    1.2250    0.0000 H       1  UNL1        0.0265
     52 H           1.6900    0.7869    0.0000 H       1  UNL1        0.0230
     53 H           1.4631   -0.0600    0.0000 H       1  UNL1        0.0230
     54 H           2.3100   -0.2869    0.0000 H       1  UNL1        0.0230
     55 H          15.4579   -0.2249    0.0000 H       1  UNL1        0.0263
     56 H          16.2549   -0.2249    0.0000 H       1  UNL1        0.0263
     57 H          17.0324    0.2131    0.0000 H       1  UNL1        0.0230
     58 H          17.2594    1.0600    0.0000 H       1  UNL1        0.0230
     59 H          16.4124    1.2869    0.0000 H       1  UNL1        0.0230
@<TRIPOS>BOND
     1     1     2    1
     2     1     3    1
     3     1    20    1
     4     1    21    1
     5     2     4    1
     6     2    22    1
     7     2    23    1
     8     3     5    1
     9     3    24    1
    10     3    25    1
    11     4     6    1
    12     4    26    1
    13     4    27    1
    14     5    12    1
    15     5    15    1
    16     5    28    1
    17     6     7    1
    18     6    29    1
    19     6    30    1
    20     7     8    1
    21     7    31    1
    22     7    32    1
    23     8     9    1
    24     8    33    1
    25     8    34    1
    26     9    10    1
    27     9    35    1
    28     9    36    1
    29    10    11    1
    30    10    37    1
    31    10    38    1
    32    11    13    1
    33    11    39    1
    34    11    40    1
    35    12    17    1
    36    12    41    1
    37    12    42    1
    38    13    14    1
    39    13    43    1
    40    13    44    1
    41    14    16    1
    42    14    45    1
    43    14    46    1
    44    15    47    1
    45    15    48    1
    46    15    49    1
    47    16    18    1
    48    16    50    1
    49    16    51    1
    50    17    52    1
    51    17    53    1
    52    17    54    1
    53    18    19    1
    54    18    55    1
    55    18    56    1
    56    19    57    1
    57    19    58    1
    58    19    59    1
