@<TRIPOS>MOLECULE
IMPHY017624
 35 34 0 0 0
SMALL
GASTEIGER

@<TRIPOS>ATOM
      1 O           2.8660   -0.7500    0.0000 O.3     1  UNL1       -0.4642
      2 O           5.4641   -0.2500    0.0000 O.3     1  UNL1       -0.3875
      3 O           3.7320   -2.2500    0.0000 O.2     1  UNL1       -0.2512
      4 C           3.7320    0.7500    0.0000 C.3     1  UNL1        0.0165
      5 C           4.5981    1.2500    0.0000 C.3     1  UNL1       -0.0134
      6 C           5.4641    0.7500    0.0000 C.3     1  UNL1        0.0764
      7 C           3.7320   -0.2500    0.0000 C.3     1  UNL1        0.0990
      8 C           2.8660    1.2500    0.0000 C.2     1  UNL1       -0.0733
      9 C           6.3301    1.2500    0.0000 C.2     1  UNL1       -0.0516
     10 C           2.0000    0.7500    0.0000 C.3     1  UNL1       -0.0437
     11 C           2.8660    2.2500    0.0000 C.2     1  UNL1       -0.0993
     12 C           7.1962    0.7500    0.0000 C.3     1  UNL1       -0.0416
     13 C           6.3301    2.2500    0.0000 C.2     1  UNL1       -0.0973
     14 C           2.8660   -1.7500    0.0000 C.2     1  UNL1        0.3040
     15 C           2.0000   -2.2500    0.0000 C.3     1  UNL1        0.0332
     16 H           3.7320    1.3700    0.0000 H       1  UNL1        0.0379
     17 H           4.9966    1.7250    0.0000 H       1  UNL1        0.0300
     18 H           4.1996    1.7250    0.0000 H       1  UNL1        0.0300
     19 H           6.0010    0.4400    0.0000 H       1  UNL1        0.0640
     20 H           3.9441   -0.8326    0.0000 H       1  UNL1        0.0703
     21 H           4.3426   -0.1423    0.0000 H       1  UNL1        0.0703
     22 H           1.6900    1.2869    0.0000 H       1  UNL1        0.0274
     23 H           1.4631    0.4400    0.0000 H       1  UNL1        0.0274
     24 H           2.3100    0.2131    0.0000 H       1  UNL1        0.0274
     25 H           3.4030    2.5600    0.0000 H       1  UNL1        0.0534
     26 H           2.3291    2.5600    0.0000 H       1  UNL1        0.0534
     27 H           6.0010   -0.5600    0.0000 H       1  UNL1        0.2102
     28 H           6.8862    0.2131    0.0000 H       1  UNL1        0.0275
     29 H           7.7331    0.4400    0.0000 H       1  UNL1        0.0275
     30 H           7.5062    1.2869    0.0000 H       1  UNL1        0.0275
     31 H           6.8671    2.5600    0.0000 H       1  UNL1        0.0535
     32 H           5.7932    2.5600    0.0000 H       1  UNL1        0.0535
     33 H           1.6900   -1.7131    0.0000 H       1  UNL1        0.0342
     34 H           1.4631   -2.5600    0.0000 H       1  UNL1        0.0342
     35 H           2.3100   -2.7869    0.0000 H       1  UNL1        0.0342
@<TRIPOS>BOND
     1     1     7    1
     2     1    14    1
     3     2     6    1
     4     2    27    1
     5     3    14    2
     6     4     5    1
     7     4     7    1
     8     4     8    1
     9     4    16    1
    10     5     6    1
    11     5    17    1
    12     5    18    1
    13     6     9    1
    14     6    19    1
    15     7    20    1
    16     7    21    1
    17     8    10    1
    18     8    11    2
    19     9    12    1
    20     9    13    2
    21    10    22    1
    22    10    23    1
    23    10    24    1
    24    11    25    1
    25    11    26    1
    26    12    28    1
    27    12    29    1
    28    12    30    1
    29    13    31    1
    30    13    32    1
    31    14    15    1
    32    15    33    1
    33    15    34    1
    34    15    35    1
