@<TRIPOS>MOLECULE
IMPHY016279
 13 13 0 0 0
SMALL
GASTEIGER

@<TRIPOS>ATOM
      1 N           2.8090   -0.4594    0.0000 N.ar    1  UNL1       -0.3646
      2 C           3.6180    0.1284    0.0000 C.ar    1  UNL1        0.0128
      3 C           3.3090    1.0794    0.0000 C.ar    1  UNL1       -0.0415
      4 C           4.5691   -0.1807    0.0000 C.3     1  UNL1       -0.0245
      5 C           2.0000    0.1284    0.0000 C.ar    1  UNL1        0.0019
      6 C           2.3090    1.0794    0.0000 C.ar    1  UNL1       -0.0442
      7 H           2.8090   -1.0794    0.0000 H       1  UNL1        0.1650
      8 H           3.6734    1.5810    0.0000 H       1  UNL1        0.0635
      9 H           4.3775   -0.7703    0.0000 H       1  UNL1        0.0292
     10 H           5.1588   -0.3722    0.0000 H       1  UNL1        0.0292
     11 H           4.7607    0.4090    0.0000 H       1  UNL1        0.0292
     12 H           1.4103   -0.0632    0.0000 H       1  UNL1        0.0807
     13 H           1.9446    1.5810    0.0000 H       1  UNL1        0.0632
@<TRIPOS>BOND
     1     1     2   ar
     2     1     5   ar
     3     1     7    1
     4     2     3   ar
     5     2     4    1
     6     3     6   ar
     7     3     8    1
     8     4     9    1
     9     4    10    1
    10     4    11    1
    11     5     6   ar
    12     5    12    1
    13     6    13    1
