@<TRIPOS>MOLECULE
IMPHY013417
 59 62 0 0 0
SMALL
GASTEIGER

@<TRIPOS>ATOM
      1 O           5.1350   -1.3420    0.0000 O.3     1  UNL1       -0.3313
      2 O           6.8671   -1.3420    0.0000 O.3     1  UNL1       -0.4599
      3 O           5.1350   -4.3420    0.0000 O.3     1  UNL1       -0.3864
      4 O           3.4030   -3.3420    0.0000 O.3     1  UNL1       -0.3865
      5 O           6.8671   -3.3420    0.0000 O.3     1  UNL1       -0.3829
      6 O           2.5369   -1.8420    0.0000 O.3     1  UNL1       -0.3924
      7 O           8.6504    1.6722    0.0000 O.2     1  UNL1       -0.4544
      8 O           5.1208    1.7372    0.0000 O.3     1  UNL1       -0.5065
      9 O           8.6158   -1.3276    0.0000 O.2     1  UNL1       -0.2869
     10 O          11.2773    4.1420    0.0000 O.3     1  UNL1       -0.4913
     11 O          12.9745    1.1222    0.0000 O.3     1  UNL1       -0.4913
     12 O          12.9976    3.1220    0.0000 O.3     1  UNL1       -0.5009
     13 C           5.1350   -3.3420    0.0000 C.3     1  UNL1        0.1152
     14 C           4.2690   -2.8420    0.0000 C.3     1  UNL1        0.1120
     15 C           6.0010   -2.8420    0.0000 C.3     1  UNL1        0.1454
     16 C           4.2690   -1.8420    0.0000 C.3     1  UNL1        0.1140
     17 C           6.0010   -1.8420    0.0000 C.3     1  UNL1        0.2308
     18 C           3.4030   -1.3420    0.0000 C.3     1  UNL1        0.0731
     19 C           6.8671   -0.3420    0.0000 C.ar    1  UNL1        0.1418
     20 C           7.7671    0.1823    0.0000 C.ar    1  UNL1        0.1058
     21 C           5.9670    0.1823    0.0000 C.ar    1  UNL1        0.0226
     22 C           7.7787    1.1822    0.0000 C.ar    1  UNL1        0.1462
     23 C           8.6273   -0.3277    0.0000 C.ar    1  UNL1        0.1966
     24 C           5.9790    1.2239    0.0000 C.ar    1  UNL1        0.1239
     25 C           6.8910    1.7272    0.0000 C.ar    1  UNL1        0.0231
     26 C           9.5106    1.1622    0.0000 C.ar    1  UNL1        0.1395
     27 C           9.4991    0.1623    0.0000 C.ar    1  UNL1        0.0288
     28 C          10.3824    1.6522    0.0000 C.ar    1  UNL1        0.0245
     29 C          11.2426    1.1422    0.0000 C.ar    1  UNL1       -0.0054
     30 C          10.3939    2.6521    0.0000 C.ar    1  UNL1       -0.0054
     31 C          11.2657    3.1421    0.0000 C.ar    1  UNL1        0.1656
     32 C          12.1143    1.6322    0.0000 C.ar    1  UNL1        0.1656
     33 C          12.1259    2.6321    0.0000 C.ar    1  UNL1        0.2010
     34 C          10.4171    4.6520    0.0000 C.3     1  UNL1        0.0790
     35 C          12.9629    0.1222    0.0000 C.3     1  UNL1        0.0790
     36 H           4.5981   -3.6520    0.0000 H       1  UNL1        0.0648
     37 H           4.2690   -3.4620    0.0000 H       1  UNL1        0.0647
     38 H           6.0010   -3.4620    0.0000 H       1  UNL1        0.0683
     39 H           4.2690   -1.2220    0.0000 H       1  UNL1        0.0647
     40 H           6.0010   -1.2220    0.0000 H       1  UNL1        0.1084
     41 H           3.8015   -0.8670    0.0000 H       1  UNL1        0.0584
     42 H           3.0044   -0.8670    0.0000 H       1  UNL1        0.0584
     43 H           4.5981   -4.6520    0.0000 H       1  UNL1        0.2100
     44 H           3.4030   -3.9620    0.0000 H       1  UNL1        0.2100
     45 H           6.8671   -3.9620    0.0000 H       1  UNL1        0.2102
     46 H           2.0000   -1.5320    0.0000 H       1  UNL1        0.2095
     47 H           5.4277   -0.1235    0.0000 H       1  UNL1        0.0691
     48 H           6.9053    2.3470    0.0000 H       1  UNL1        0.0691
     49 H          10.0324   -0.1539    0.0000 H       1  UNL1        0.0693
     50 H          11.2354    0.5222    0.0000 H       1  UNL1        0.0662
     51 H           9.8606    2.9683    0.0000 H       1  UNL1        0.0662
     52 H           5.1304    2.3571    0.0000 H       1  UNL1        0.2921
     53 H          13.5309    2.8058    0.0000 H       1  UNL1        0.2924
     54 H          10.7333    5.1853    0.0000 H       1  UNL1        0.0660
     55 H           9.8837    4.9682    0.0000 H       1  UNL1        0.0660
     56 H          10.1009    4.1187    0.0000 H       1  UNL1        0.0660
     57 H          12.3430    0.1294    0.0000 H       1  UNL1        0.0660
     58 H          12.9558   -0.4977    0.0000 H       1  UNL1        0.0660
     59 H          13.5829    0.1151    0.0000 H       1  UNL1        0.0660
@<TRIPOS>BOND
     1     1    16    1
     2     1    17    1
     3    17     2    1
     4     2    19    1
     5    13     3    1
     6     3    43    1
     7    14     4    1
     8     4    44    1
     9     5    15    1
    10     5    45    1
    11     6    18    1
    12     6    46    1
    13     7    22   ar
    14     7    26   ar
    15     8    24    1
    16     8    52    1
    17     9    23    2
    18    10    31    1
    19    10    34    1
    20    11    32    1
    21    11    35    1
    22    12    33    1
    23    12    53    1
    24    13    14    1
    25    13    15    1
    26    13    36    1
    27    14    16    1
    28    14    37    1
    29    15    17    1
    30    15    38    1
    31    16    18    1
    32    16    39    1
    33    17    40    1
    34    18    41    1
    35    18    42    1
    36    19    20   ar
    37    19    21   ar
    38    20    22   ar
    39    20    23   ar
    40    21    24   ar
    41    21    47    1
    42    22    25   ar
    43    23    27   ar
    44    24    25   ar
    45    25    48    1
    46    26    27   ar
    47    26    28    1
    48    27    49    1
    49    28    29   ar
    50    28    30   ar
    51    29    32   ar
    52    29    50    1
    53    30    31   ar
    54    30    51    1
    55    31    33   ar
    56    32    33   ar
    57    34    54    1
    58    34    55    1
    59    34    56    1
    60    35    57    1
    61    35    58    1
    62    35    59    1
