@<TRIPOS>MOLECULE
IMPHY013860
 51 50 0 0 0
SMALL
GASTEIGER

@<TRIPOS>ATOM
      1 O          13.2583   -0.7500    0.0000 O.2     1  UNL1       -0.2970
      2 O          14.9904   -0.7500    0.0000 O.2     1  UNL1       -0.2973
      3 C           8.0622    0.2500    0.0000 C.3     1  UNL1       -0.0531
      4 C           7.1962    0.7500    0.0000 C.3     1  UNL1       -0.0531
      5 C           8.9282    0.7500    0.0000 C.3     1  UNL1       -0.0531
      6 C           6.3301    0.2500    0.0000 C.3     1  UNL1       -0.0531
      7 C           9.7942    0.2500    0.0000 C.3     1  UNL1       -0.0530
      8 C           5.4641    0.7500    0.0000 C.3     1  UNL1       -0.0531
      9 C          10.6603    0.7500    0.0000 C.3     1  UNL1       -0.0527
     10 C           4.5981    0.2500    0.0000 C.3     1  UNL1       -0.0531
     11 C          11.5263    0.2500    0.0000 C.3     1  UNL1       -0.0464
     12 C           3.7320    0.7500    0.0000 C.3     1  UNL1       -0.0533
     13 C          12.3923    0.7500    0.0000 C.3     1  UNL1        0.0062
     14 C           2.8660    0.2500    0.0000 C.3     1  UNL1       -0.0559
     15 C          13.2583    0.2500    0.0000 C.2     1  UNL1        0.1404
     16 C           2.0000    0.7500    0.0000 C.3     1  UNL1       -0.0653
     17 C          14.1244    0.7500    0.0000 C.3     1  UNL1        0.0640
     18 C          14.9904    0.2500    0.0000 C.2     1  UNL1        0.1374
     19 C          15.8564    0.7500    0.0000 C.3     1  UNL1       -0.0056
     20 H           7.6636   -0.2249    0.0000 H       1  UNL1        0.0265
     21 H           8.4607   -0.2249    0.0000 H       1  UNL1        0.0265
     22 H           7.5947    1.2250    0.0000 H       1  UNL1        0.0265
     23 H           6.7976    1.2250    0.0000 H       1  UNL1        0.0265
     24 H           9.3267    1.2250    0.0000 H       1  UNL1        0.0265
     25 H           8.5297    1.2250    0.0000 H       1  UNL1        0.0265
     26 H           5.9316   -0.2249    0.0000 H       1  UNL1        0.0265
     27 H           6.7287   -0.2249    0.0000 H       1  UNL1        0.0265
     28 H           9.3957   -0.2249    0.0000 H       1  UNL1        0.0265
     29 H          10.1928   -0.2249    0.0000 H       1  UNL1        0.0265
     30 H           5.8626    1.2250    0.0000 H       1  UNL1        0.0265
     31 H           5.0656    1.2250    0.0000 H       1  UNL1        0.0265
     32 H          11.0588    1.2250    0.0000 H       1  UNL1        0.0265
     33 H          10.2617    1.2250    0.0000 H       1  UNL1        0.0265
     34 H           4.1996   -0.2249    0.0000 H       1  UNL1        0.0265
     35 H           4.9966   -0.2249    0.0000 H       1  UNL1        0.0265
     36 H          11.1278   -0.2249    0.0000 H       1  UNL1        0.0269
     37 H          11.9248   -0.2249    0.0000 H       1  UNL1        0.0269
     38 H           4.1306    1.2250    0.0000 H       1  UNL1        0.0265
     39 H           3.3335    1.2250    0.0000 H       1  UNL1        0.0265
     40 H          12.7908    1.2250    0.0000 H       1  UNL1        0.0342
     41 H          11.9938    1.2250    0.0000 H       1  UNL1        0.0342
     42 H           2.4675   -0.2249    0.0000 H       1  UNL1        0.0263
     43 H           3.2646   -0.2249    0.0000 H       1  UNL1        0.0263
     44 H           2.3100    1.2869    0.0000 H       1  UNL1        0.0230
     45 H           1.4631    1.0600    0.0000 H       1  UNL1        0.0230
     46 H           1.6900    0.2131    0.0000 H       1  UNL1        0.0230
     47 H          14.5229    1.2250    0.0000 H       1  UNL1        0.0419
     48 H          13.7258    1.2250    0.0000 H       1  UNL1        0.0419
     49 H          16.1664    0.2131    0.0000 H       1  UNL1        0.0306
     50 H          16.3933    1.0600    0.0000 H       1  UNL1        0.0306
     51 H          15.5464    1.2869    0.0000 H       1  UNL1        0.0306
@<TRIPOS>BOND
     1     1    15    2
     2     2    18    2
     3     3     4    1
     4     3     5    1
     5     3    20    1
     6     3    21    1
     7     4     6    1
     8     4    22    1
     9     4    23    1
    10     5     7    1
    11     5    24    1
    12     5    25    1
    13     6     8    1
    14     6    26    1
    15     6    27    1
    16     7     9    1
    17     7    28    1
    18     7    29    1
    19     8    10    1
    20     8    30    1
    21     8    31    1
    22     9    11    1
    23     9    32    1
    24     9    33    1
    25    10    12    1
    26    10    34    1
    27    10    35    1
    28    11    13    1
    29    11    36    1
    30    11    37    1
    31    12    14    1
    32    12    38    1
    33    12    39    1
    34    13    15    1
    35    13    40    1
    36    13    41    1
    37    14    16    1
    38    14    42    1
    39    14    43    1
    40    15    17    1
    41    16    44    1
    42    16    45    1
    43    16    46    1
    44    17    18    1
    45    17    47    1
    46    17    48    1
    47    18    19    1
    48    19    49    1
    49    19    50    1
    50    19    51    1
