@<TRIPOS>MOLECULE
IMPHY009937
 59 60 0 0 0
SMALL
GASTEIGER

@<TRIPOS>ATOM
      1 O           7.7331    1.7500    0.0000 O.3     1  UNL1       -0.4614
      2 O           5.1350    0.2500    0.0000 O.3     1  UNL1       -0.4614
      3 O           8.5991    0.2500    0.0000 O.2     1  UNL1       -0.2512
      4 O           4.2690   -1.2500    0.0000 O.2     1  UNL1       -0.2512
      5 O           4.2690    5.7500    0.0000 O.3     1  UNL1       -0.5033
      6 O           8.5991   -4.7500    0.0000 O.3     1  UNL1       -0.5033
      7 O           2.5369    4.7500    0.0000 O.3     1  UNL1       -0.5033
      8 O           6.8671   -5.7500    0.0000 O.3     1  UNL1       -0.5033
      9 C           6.8671    0.2500    0.0000 C.3     1  UNL1        0.0216
     10 C           6.8671    1.2500    0.0000 C.3     1  UNL1        0.1067
     11 C           6.0010   -0.2500    0.0000 C.3     1  UNL1        0.1067
     12 C           6.0010   -1.2500    0.0000 C.3     1  UNL1       -0.0116
     13 C           6.0010    1.7500    0.0000 C.3     1  UNL1       -0.0116
     14 C           6.8671   -1.7500    0.0000 C.3     1  UNL1       -0.0242
     15 C           6.0010    2.7500    0.0000 C.3     1  UNL1       -0.0242
     16 C           5.1350    3.2500    0.0000 C.ar    1  UNL1       -0.0436
     17 C           6.8671   -2.7500    0.0000 C.ar    1  UNL1       -0.0436
     18 C           5.1350    4.2500    0.0000 C.ar    1  UNL1       -0.0133
     19 C           7.7331   -3.2500    0.0000 C.ar    1  UNL1       -0.0133
     20 C           8.5991    1.2500    0.0000 C.2     1  UNL1        0.3042
     21 C           4.2690   -0.2500    0.0000 C.2     1  UNL1        0.3042
     22 C           4.2690    2.7500    0.0000 C.ar    1  UNL1       -0.0549
     23 C           6.0010   -3.2500    0.0000 C.ar    1  UNL1       -0.0549
     24 C           4.2690    4.7500    0.0000 C.ar    1  UNL1        0.1585
     25 C           7.7331   -4.2500    0.0000 C.ar    1  UNL1        0.1585
     26 C           3.4030    3.2500    0.0000 C.ar    1  UNL1       -0.0163
     27 C           6.0010   -4.2500    0.0000 C.ar    1  UNL1       -0.0163
     28 C           3.4030    0.2500    0.0000 C.3     1  UNL1        0.0332
     29 C           9.4651    1.7500    0.0000 C.3     1  UNL1        0.0332
     30 C           6.8671   -4.7500    0.0000 C.ar    1  UNL1        0.1582
     31 C           3.4030    4.2500    0.0000 C.ar    1  UNL1        0.1582
     32 H           7.0791   -0.3326    0.0000 H       1  UNL1        0.0337
     33 H           7.4776    0.3577    0.0000 H       1  UNL1        0.0337
     34 H           7.4040    0.9400    0.0000 H       1  UNL1        0.0735
     35 H           5.4641   -0.5600    0.0000 H       1  UNL1        0.0735
     36 H           5.3905    1.8577    0.0000 H       1  UNL1        0.0304
     37 H           5.7890    1.1674    0.0000 H       1  UNL1        0.0304
     38 H           5.3905   -1.1423    0.0000 H       1  UNL1        0.0304
     39 H           5.7890   -1.8326    0.0000 H       1  UNL1        0.0304
     40 H           6.6116    2.6423    0.0000 H       1  UNL1        0.0314
     41 H           6.2131    3.3326    0.0000 H       1  UNL1        0.0314
     42 H           7.4776   -1.8577    0.0000 H       1  UNL1        0.0314
     43 H           7.0791   -1.1674    0.0000 H       1  UNL1        0.0314
     44 H           5.6720    4.5600    0.0000 H       1  UNL1        0.0658
     45 H           8.2700   -2.9400    0.0000 H       1  UNL1        0.0658
     46 H           4.2690    2.1300    0.0000 H       1  UNL1        0.0621
     47 H           5.4641   -2.9400    0.0000 H       1  UNL1        0.0621
     48 H           2.8660    2.9400    0.0000 H       1  UNL1        0.0655
     49 H           5.4641   -4.5600    0.0000 H       1  UNL1        0.0655
     50 H           3.7130    0.7869    0.0000 H       1  UNL1        0.0342
     51 H           2.8660    0.5600    0.0000 H       1  UNL1        0.0342
     52 H           9.7751    1.2131    0.0000 H       1  UNL1        0.0342
     53 H          10.0021    2.0600    0.0000 H       1  UNL1        0.0342
     54 H           9.1551    2.2869    0.0000 H       1  UNL1        0.0342
     55 H           3.0930   -0.2869    0.0000 H       1  UNL1        0.0342
     56 H           4.8059    6.0600    0.0000 H       1  UNL1        0.2923
     57 H           9.1360   -4.4400    0.0000 H       1  UNL1        0.2923
     58 H           2.0000    4.4400    0.0000 H       1  UNL1        0.2923
     59 H           6.3301   -6.0600    0.0000 H       1  UNL1        0.2923
@<TRIPOS>BOND
     1    10     1    1
     2     1    20    1
     3    11     2    1
     4     2    21    1
     5     3    20    2
     6     4    21    2
     7     5    24    1
     8     5    56    1
     9     6    25    1
    10     6    57    1
    11     7    31    1
    12     7    58    1
    13     8    30    1
    14     8    59    1
    15     9    10    1
    16     9    11    1
    17     9    32    1
    18     9    33    1
    19    10    13    1
    20    10    34    1
    21    11    12    1
    22    11    35    1
    23    12    14    1
    24    12    38    1
    25    12    39    1
    26    13    15    1
    27    13    36    1
    28    13    37    1
    29    14    17    1
    30    14    42    1
    31    14    43    1
    32    15    16    1
    33    15    40    1
    34    15    41    1
    35    16    18   ar
    36    16    22   ar
    37    17    19   ar
    38    17    23   ar
    39    18    24   ar
    40    18    44    1
    41    19    25   ar
    42    19    45    1
    43    20    29    1
    44    21    28    1
    45    22    26   ar
    46    22    46    1
    47    23    27   ar
    48    23    47    1
    49    24    31   ar
    50    25    30   ar
    51    26    31   ar
    52    26    48    1
    53    27    30   ar
    54    27    49    1
    55    28    50    1
    56    28    51    1
    57    28    55    1
    58    29    52    1
    59    29    53    1
    60    29    54    1
