@<TRIPOS>MOLECULE
IMPHY008828
 32 34 0 0 0
SMALL
GASTEIGER

@<TRIPOS>ATOM
      1 O           2.5836   -2.0894    0.0000 O.3     1  UNL1       -0.4911
      2 O           7.0321   -0.7878    0.0000 O.2     1  UNL1       -0.2832
      3 O           7.0479    1.2605    0.0000 O.2     1  UNL1       -0.2835
      4 C           2.5836   -0.4799    0.0000 C.3     1  UNL1        0.0195
      5 C           3.5298   -0.7846    0.0000 C.ar    1  UNL1        0.0081
      6 C           2.0000   -1.2846    0.0000 C.3     1  UNL1        0.0962
      7 C           4.3958   -0.2846    0.0000 C.ar    1  UNL1       -0.0065
      8 C           3.5298   -1.7846    0.0000 C.ar    1  UNL1        0.1249
      9 C           5.2619   -0.7846    0.0000 C.ar    1  UNL1        0.0361
     10 C           2.2729    0.4706    0.0000 C.3     1  UNL1       -0.0551
     11 C           5.2619   -1.7846    0.0000 C.ar    1  UNL1       -0.0355
     12 C           4.3958   -2.2846    0.0000 C.ar    1  UNL1       -0.0160
     13 C           4.3798    0.7569    0.0000 C.2     1  UNL1       -0.0469
     14 C           6.1719   -0.2778    0.0000 C.2     1  UNL1        0.2334
     15 C           5.2778    1.2846    0.0000 C.2     1  UNL1        0.0007
     16 C           6.1799    0.7638    0.0000 C.2     1  UNL1        0.2288
     17 C           6.1279   -2.2846    0.0000 C.3     1  UNL1       -0.0389
     18 C           5.2740    2.2846    0.0000 C.3     1  UNL1       -0.0359
     19 H           1.9711   -0.3837    0.0000 H       1  UNL1        0.0380
     20 H           1.5391   -0.8699    0.0000 H       1  UNL1        0.0702
     21 H           1.5391   -1.6994    0.0000 H       1  UNL1        0.0702
     22 H           2.8623    0.6632    0.0000 H       1  UNL1        0.0237
     23 H           2.0803    1.0600    0.0000 H       1  UNL1        0.0237
     24 H           1.6836    0.2780    0.0000 H       1  UNL1        0.0237
     25 H           4.3958   -2.9046    0.0000 H       1  UNL1        0.0657
     26 H           3.8393    1.0607    0.0000 H       1  UNL1        0.0628
     27 H           5.8179   -2.8216    0.0000 H       1  UNL1        0.0278
     28 H           6.6648   -2.5946    0.0000 H       1  UNL1        0.0278
     29 H           6.4379   -1.7477    0.0000 H       1  UNL1        0.0278
     30 H           5.8940    2.2870    0.0000 H       1  UNL1        0.0279
     31 H           5.2716    2.9046    0.0000 H       1  UNL1        0.0279
     32 H           4.6540    2.2822    0.0000 H       1  UNL1        0.0279
@<TRIPOS>BOND
     1     1     6    1
     2     1     8    1
     3     2    14    2
     4     3    16    2
     5     4     5    1
     6     4     6    1
     7     4    10    1
     8     4    19    1
     9     5     7   ar
    10     5     8   ar
    11     6    20    1
    12     6    21    1
    13     7     9   ar
    14     7    13    1
    15     8    12   ar
    16     9    11   ar
    17     9    14    1
    18    10    22    1
    19    10    23    1
    20    10    24    1
    21    11    12   ar
    22    11    17    1
    23    12    25    1
    24    13    15    2
    25    13    26    1
    26    14    16    1
    27    15    16    1
    28    15    18    1
    29    17    27    1
    30    17    28    1
    31    17    29    1
    32    18    30    1
    33    18    31    1
    34    18    32    1
