@<TRIPOS>MOLECULE
IMPHY011118
 115 122 0 0 0
SMALL
GASTEIGER

@<TRIPOS>ATOM
      1 O           7.4241    4.0403    0.0000 O.3     1  UNL1       -0.3448
      2 O           5.6517    4.9351    0.0000 O.3     1  UNL1       -0.3480
      3 O           8.6959   -1.5417    0.0000 O.3     1  UNL1       -0.3915
      4 O           6.0010   -4.2038    0.0000 O.3     1  UNL1       -0.3454
      5 O           4.2690   -4.2038    0.0000 O.3     1  UNL1       -0.3431
      6 O           6.0010   -6.2038    0.0000 O.3     1  UNL1       -0.3378
      7 O           4.2690   -7.2038    0.0000 O.3     1  UNL1       -0.3864
      8 O           2.5369   -6.2038    0.0000 O.3     1  UNL1       -0.3866
      9 O           6.8671   -4.7038    0.0000 O.3     1  UNL1       -0.3431
     10 O           7.7331   -7.2038    0.0000 O.3     1  UNL1       -0.3841
     11 O           9.4651   -6.2038    0.0000 O.3     1  UNL1       -0.3864
     12 O           9.4651   -4.2038    0.0000 O.3     1  UNL1       -0.3866
     13 C           6.0303    1.9931    0.0000 C.3     1  UNL1       -0.0233
     14 C           6.8982    1.4965    0.0000 C.3     1  UNL1       -0.0298
     15 C           6.9021    0.4965    0.0000 C.3     1  UNL1       -0.0319
     16 C           6.2358    2.9657    0.0000 C.3     1  UNL1       -0.0015
     17 C           6.0380   -0.0069    0.0000 C.3     1  UNL1       -0.0321
     18 C           6.0260   -1.0484    0.0000 C.3     1  UNL1       -0.0236
     19 C           7.2241    3.0726    0.0000 C.3     1  UNL1        0.0660
     20 C           7.6327    2.1664    0.0000 C.3     1  UNL1       -0.0226
     21 C           5.1662    1.4898    0.0000 C.3     1  UNL1       -0.0467
     22 C           5.1701    0.4898    0.0000 C.3     1  UNL1       -0.0489
     23 C           5.8335    3.8683    0.0000 C.3     1  UNL1        0.0160
     24 C           6.9260   -1.5727    0.0000 C.3     1  UNL1       -0.0070
     25 C           7.8140   -0.0069    0.0000 C.3     1  UNL1       -0.0232
     26 C           7.8261   -1.0484    0.0000 C.3     1  UNL1        0.0589
     27 C           6.5664    4.5311    0.0000 C.3     1  UNL1        0.1732
     28 C           5.1624    2.4898    0.0000 C.3     1  UNL1       -0.0590
     29 C           5.0761   -1.5727    0.0000 C.3     1  UNL1       -0.0447
     30 C           6.9386   -2.6576    0.0000 C.3     1  UNL1       -0.0208
     31 C           5.1619   -0.5451    0.0000 C.3     1  UNL1       -0.0590
     32 C           5.0635   -2.6576    0.0000 C.3     1  UNL1       -0.0260
     33 C           6.0010   -3.2038    0.0000 C.3     1  UNL1        0.0622
     34 C           4.8551    4.0750    0.0000 C.3     1  UNL1       -0.0572
     35 C           7.3737    5.1213    0.0000 C.3     1  UNL1        0.0020
     36 C           7.2662    6.1155    0.0000 C.3     1  UNL1       -0.0435
     37 C           5.5442    5.9293    0.0000 C.3     1  UNL1        0.0535
     38 C           6.3514    6.5195    0.0000 C.3     1  UNL1       -0.0201
     39 C           6.2439    7.5138    0.0000 C.3     1  UNL1       -0.0603
     40 C           5.1350   -4.7038    0.0000 C.3     1  UNL1        0.1885
     41 C           5.1350   -5.7038    0.0000 C.3     1  UNL1        0.1406
     42 C           4.2690   -6.2038    0.0000 C.3     1  UNL1        0.1143
     43 C           3.4030   -4.7038    0.0000 C.3     1  UNL1        0.0873
     44 C           3.4030   -5.7038    0.0000 C.3     1  UNL1        0.1095
     45 C           2.5369   -4.2038    0.0000 C.3     1  UNL1       -0.0361
     46 C           6.8671   -5.7038    0.0000 C.3     1  UNL1        0.1884
     47 C           7.7331   -6.2038    0.0000 C.3     1  UNL1        0.1341
     48 C           8.5991   -5.7038    0.0000 C.3     1  UNL1        0.1140
     49 C           7.7331   -4.2038    0.0000 C.3     1  UNL1        0.0873
     50 C           8.5991   -4.7038    0.0000 C.3     1  UNL1        0.1095
     51 C           7.7331   -3.2038    0.0000 C.3     1  UNL1       -0.0361
     52 H           7.4659    1.2472    0.0000 H       1  UNL1        0.0310
     53 H           7.4354    0.8127    0.0000 H       1  UNL1        0.0307
     54 H           5.6192    2.9004    0.0000 H       1  UNL1        0.0335
     55 H           6.5737   -0.3189    0.0000 H       1  UNL1        0.0309
     56 H           7.8403    3.1406    0.0000 H       1  UNL1        0.0600
     57 H           8.0000    1.6670    0.0000 H       1  UNL1        0.0293
     58 H           8.1680    2.4792    0.0000 H       1  UNL1        0.0293
     59 H           4.9519    2.0716    0.0000 H       1  UNL1        0.0271
     60 H           4.5560    1.3798    0.0000 H       1  UNL1        0.0271
     61 H           4.5591    0.5951    0.0000 H       1  UNL1        0.0268
     62 H           4.9602   -0.0936    0.0000 H       1  UNL1        0.0268
     63 H           5.6720    4.4669    0.0000 H       1  UNL1        0.0354
     64 H           7.4653   -1.8786    0.0000 H       1  UNL1        0.0332
     65 H           8.4261   -0.1059    0.0000 H       1  UNL1        0.0293
     66 H           8.0163    0.5792    0.0000 H       1  UNL1        0.0293
     67 H           8.3600   -0.7333    0.0000 H       1  UNL1        0.0596
     68 H           5.4703    3.0279    0.0000 H       1  UNL1        0.0235
     69 H           4.6242    2.7977    0.0000 H       1  UNL1        0.0235
     70 H           4.8544    1.9517    0.0000 H       1  UNL1        0.0235
     71 H           4.8738   -0.9866    0.0000 H       1  UNL1        0.0271
     72 H           4.4640   -1.6717    0.0000 H       1  UNL1        0.0271
     73 H           7.1544   -3.2389    0.0000 H       1  UNL1        0.0294
     74 H           7.5482   -2.5445    0.0000 H       1  UNL1        0.0294
     75 H           5.4739   -0.0093    0.0000 H       1  UNL1        0.0235
     76 H           4.6261   -0.2330    0.0000 H       1  UNL1        0.0235
     77 H           4.8498   -1.0808    0.0000 H       1  UNL1        0.0235
     78 H           4.4539   -2.5445    0.0000 H       1  UNL1        0.0290
     79 H           4.8477   -3.2389    0.0000 H       1  UNL1        0.0290
     80 H           6.5386   -3.5127    0.0000 H       1  UNL1        0.0597
     81 H           4.9832    4.6816    0.0000 H       1  UNL1        0.0234
     82 H           4.2484    4.2032    0.0000 H       1  UNL1        0.0234
     83 H           4.7269    3.4684    0.0000 H       1  UNL1        0.0234
     84 H           7.6471    4.5649    0.0000 H       1  UNL1        0.0317
     85 H           7.9692    5.2940    0.0000 H       1  UNL1        0.0317
     86 H           7.8848    6.0741    0.0000 H       1  UNL1        0.0270
     87 H           7.4144    6.7176    0.0000 H       1  UNL1        0.0270
     88 H           9.2305   -1.2276    0.0000 H       1  UNL1        0.2098
     89 H           5.2707    6.4858    0.0000 H       1  UNL1        0.0563
     90 H           4.9487    5.7567    0.0000 H       1  UNL1        0.0563
     91 H           6.8519    6.8855    0.0000 H       1  UNL1        0.0320
     92 H           6.8603    7.5804    0.0000 H       1  UNL1        0.0233
     93 H           6.1773    8.1302    0.0000 H       1  UNL1        0.0233
     94 H           5.6275    7.4471    0.0000 H       1  UNL1        0.0233
     95 H           5.1350   -4.0838    0.0000 H       1  UNL1        0.0938
     96 H           5.1350   -6.3238    0.0000 H       1  UNL1        0.0675
     97 H           3.7320   -6.5138    0.0000 H       1  UNL1        0.0648
     98 H           3.4030   -4.0838    0.0000 H       1  UNL1        0.0621
     99 H           3.4030   -6.3238    0.0000 H       1  UNL1        0.0646
    100 H           2.8469   -3.6668    0.0000 H       1  UNL1        0.0255
    101 H           2.0000   -3.8938    0.0000 H       1  UNL1        0.0255
    102 H           2.2269   -4.7407    0.0000 H       1  UNL1        0.0255
    103 H           6.8671   -6.3238    0.0000 H       1  UNL1        0.0938
    104 H           3.7320   -7.5138    0.0000 H       1  UNL1        0.2100
    105 H           2.0000   -5.8938    0.0000 H       1  UNL1        0.2100
    106 H           8.2700   -6.5138    0.0000 H       1  UNL1        0.0671
    107 H           9.1360   -5.3938    0.0000 H       1  UNL1        0.0648
    108 H           7.1962   -3.8938    0.0000 H       1  UNL1        0.0621
    109 H           8.5991   -4.0838    0.0000 H       1  UNL1        0.0646
    110 H           8.2700   -7.5138    0.0000 H       1  UNL1        0.2101
    111 H           8.3531   -3.2038    0.0000 H       1  UNL1        0.0255
    112 H           7.7331   -2.5838    0.0000 H       1  UNL1        0.0255
    113 H           7.1131   -3.2038    0.0000 H       1  UNL1        0.0255
    114 H          10.0021   -5.8938    0.0000 H       1  UNL1        0.2100
    115 H          10.0021   -4.5138    0.0000 H       1  UNL1        0.2100
@<TRIPOS>BOND
     1     1    19    1
     2     1    27    1
     3     2    27    1
     4     2    37    1
     5     3    26    1
     6     3    88    1
     7     4    33    1
     8     4    40    1
     9     5    40    1
    10     5    43    1
    11     6    41    1
    12     6    46    1
    13     7    42    1
    14     7   104    1
    15     8    44    1
    16     8   105    1
    17     9    46    1
    18     9    49    1
    19    10    47    1
    20    10   110    1
    21    11    48    1
    22    11   114    1
    23    12    50    1
    24    12   115    1
    25    13    14    1
    26    13    16    1
    27    13    21    1
    28    13    28    1
    29    14    15    1
    30    14    20    1
    31    14    52    1
    32    15    17    1
    33    15    25    1
    34    15    53    1
    35    16    19    1
    36    16    23    1
    37    16    54    1
    38    17    18    1
    39    17    22    1
    40    17    55    1
    41    18    24    1
    42    18    29    1
    43    18    31    1
    44    19    20    1
    45    19    56    1
    46    20    57    1
    47    20    58    1
    48    21    22    1
    49    21    59    1
    50    21    60    1
    51    22    61    1
    52    22    62    1
    53    23    27    1
    54    23    34    1
    55    23    63    1
    56    24    26    1
    57    24    30    1
    58    24    64    1
    59    25    26    1
    60    25    65    1
    61    25    66    1
    62    26    67    1
    63    27    35    1
    64    28    68    1
    65    28    69    1
    66    28    70    1
    67    29    32    1
    68    29    71    1
    69    29    72    1
    70    30    33    1
    71    30    73    1
    72    30    74    1
    73    31    75    1
    74    31    76    1
    75    31    77    1
    76    32    33    1
    77    32    78    1
    78    32    79    1
    79    33    80    1
    80    34    81    1
    81    34    82    1
    82    34    83    1
    83    35    36    1
    84    35    84    1
    85    35    85    1
    86    36    38    1
    87    36    86    1
    88    36    87    1
    89    37    38    1
    90    37    89    1
    91    37    90    1
    92    38    39    1
    93    38    91    1
    94    39    92    1
    95    39    93    1
    96    39    94    1
    97    40    41    1
    98    40    95    1
    99    41    42    1
   100    41    96    1
   101    42    44    1
   102    42    97    1
   103    43    44    1
   104    43    45    1
   105    43    98    1
   106    44    99    1
   107    45   100    1
   108    45   101    1
   109    45   102    1
   110    46    47    1
   111    46   103    1
   112    47    48    1
   113    47   106    1
   114    48    50    1
   115    48   107    1
   116    49    50    1
   117    49    51    1
   118    49   108    1
   119    50   109    1
   120    51   111    1
   121    51   112    1
   122    51   113    1
