@<TRIPOS>MOLECULE
IMPHY001578
 48 50 0 0 0
SMALL
GASTEIGER

@<TRIPOS>ATOM
      1 O           6.8671   -0.5950    0.0000 O.3     1  UNL1       -0.3096
      2 O           6.0010    0.9050    0.0000 O.2     1  UNL1       -0.4703
      3 O           5.1350   -0.5950    0.0000 O.3     1  UNL1       -0.3404
      4 O           6.8671   -2.5950    0.0000 O.3     1  UNL1       -0.3841
      5 O           5.1350   -3.5950    0.0000 O.3     1  UNL1       -0.3864
      6 O           3.4030   -2.5950    0.0000 O.3     1  UNL1       -0.3865
      7 O           6.0010    3.9050    0.0000 O.2     1  UNL1       -0.2959
      8 O           2.5369   -1.0950    0.0000 O.3     1  UNL1       -0.3924
      9 C           7.7331    0.9050    0.0000 C.3     1  UNL1        0.0312
     10 C           7.7331    1.9050    0.0000 C.3     1  UNL1       -0.0012
     11 C           8.6793    0.6003    0.0000 C.3     1  UNL1       -0.0348
     12 C           8.6793    2.2097    0.0000 C.3     1  UNL1       -0.0453
     13 C           9.2629    1.4050    0.0000 C.3     1  UNL1       -0.0494
     14 C           6.8671    0.4050    0.0000 C.3     1  UNL1        0.2071
     15 C           6.8671    2.4050    0.0000 C.2     1  UNL1        0.0296
     16 C           8.9900   -0.3503    0.0000 C.3     1  UNL1       -0.0619
     17 C           6.0010   -1.0950    0.0000 C.3     1  UNL1        0.1918
     18 C           6.0010   -2.0950    0.0000 C.3     1  UNL1        0.1342
     19 C           6.0010    1.9050    0.0000 C.2     1  UNL1        0.0943
     20 C           5.1350   -2.5950    0.0000 C.3     1  UNL1        0.1141
     21 C           4.2690   -2.0950    0.0000 C.3     1  UNL1        0.1119
     22 C           4.2690   -1.0950    0.0000 C.3     1  UNL1        0.1130
     23 C           6.8671    3.4050    0.0000 C.2     1  UNL1        0.1494
     24 C           3.4030   -0.5950    0.0000 C.3     1  UNL1        0.0730
     25 H           7.8230    0.0598    0.0000 H       1  UNL1        0.0370
     26 H           7.8230    2.7502    0.0000 H       1  UNL1        0.0355
     27 H           8.2418    0.1609    0.0000 H       1  UNL1        0.0303
     28 H           9.2167    2.5190    0.0000 H       1  UNL1        0.0271
     29 H           8.4283    2.7766    0.0000 H       1  UNL1        0.0271
     30 H           9.7238    0.9903    0.0000 H       1  UNL1        0.0268
     31 H           9.7238    1.8197    0.0000 H       1  UNL1        0.0268
     32 H           7.4040    0.0950    0.0000 H       1  UNL1        0.1059
     33 H           8.4006   -0.5429    0.0000 H       1  UNL1        0.0233
     34 H           9.1826   -0.9396    0.0000 H       1  UNL1        0.0233
     35 H           9.5793   -0.1576    0.0000 H       1  UNL1        0.0233
     36 H           6.5380   -1.4050    0.0000 H       1  UNL1        0.0939
     37 H           6.0010   -2.7150    0.0000 H       1  UNL1        0.0671
     38 H           5.4641    2.2150    0.0000 H       1  UNL1        0.1028
     39 H           4.5981   -2.9050    0.0000 H       1  UNL1        0.0648
     40 H           3.7320   -1.7850    0.0000 H       1  UNL1        0.0647
     41 H           4.2690   -0.4750    0.0000 H       1  UNL1        0.0647
     42 H           7.4040    3.7150    0.0000 H       1  UNL1        0.1079
     43 H           3.8015   -0.1201    0.0000 H       1  UNL1        0.0584
     44 H           3.0044   -0.1201    0.0000 H       1  UNL1        0.0584
     45 H           6.8671   -3.2150    0.0000 H       1  UNL1        0.2101
     46 H           4.5981   -3.9050    0.0000 H       1  UNL1        0.2100
     47 H           3.4030   -3.2150    0.0000 H       1  UNL1        0.2100
     48 H           2.0000   -0.7850    0.0000 H       1  UNL1        0.2095
@<TRIPOS>BOND
     1    14     1    1
     2    17     1    1
     3     2    14    1
     4     2    19    1
     5     3    17    1
     6     3    22    1
     7    18     4    1
     8     4    45    1
     9    20     5    1
    10     5    46    1
    11    21     6    1
    12     6    47    1
    13     7    23    2
    14     8    24    1
    15     8    48    1
    16     9    10    1
    17     9    11    1
    18     9    14    1
    19     9    25    1
    20    10    12    1
    21    10    15    1
    22    10    26    1
    23    11    13    1
    24    11    16    1
    25    11    27    1
    26    12    13    1
    27    12    28    1
    28    12    29    1
    29    13    30    1
    30    13    31    1
    31    14    32    1
    32    15    19    2
    33    15    23    1
    34    16    33    1
    35    16    34    1
    36    16    35    1
    37    17    18    1
    38    17    36    1
    39    18    20    1
    40    18    37    1
    41    19    38    1
    42    20    21    1
    43    20    39    1
    44    21    22    1
    45    21    40    1
    46    22    24    1
    47    22    41    1
    48    23    42    1
    49    24    43    1
    50    24    44    1
