@<TRIPOS>MOLECULE
IMPHY001694
 82 83 0 0 0
SMALL
GASTEIGER

@<TRIPOS>ATOM
      1 O           6.3301   -1.1916    0.0000 O.3     1  UNL1       -0.5060
      2 O           4.1328    2.1569    0.0000 O.3     1  UNL1       -0.5060
      3 O           2.8660   -1.1916    0.0000 O.3     1  UNL1       -0.5055
      4 O           6.2258   -0.5992    0.0000 O.3     1  UNL1       -0.5055
      5 O           4.5981   -4.1916    0.0000 O.3     1  UNL1       -0.4939
      6 O           7.1692    2.8726    0.0000 O.3     1  UNL1       -0.5055
      7 O           2.0000   -2.6916    0.0000 O.2     1  UNL1       -0.2921
      8 O           8.1953    0.0535    0.0000 O.2     1  UNL1       -0.2921
      9 C           4.5981   -0.1916    0.0000 C.3     1  UNL1        0.0234
     10 C           3.5981   -0.1916    0.0000 C.3     1  UNL1       -0.0394
     11 C           3.0981    0.6744    0.0000 C.3     1  UNL1       -0.0459
     12 C           4.5981   -1.1916    0.0000 C.ar    1  UNL1        0.0442
     13 C           5.2409    0.5744    0.0000 C.ar    1  UNL1        0.0442
     14 C           5.4641   -1.6916    0.0000 C.ar    1  UNL1        0.1310
     15 C           4.8988    1.5141    0.0000 C.ar    1  UNL1        0.1310
     16 C           3.7320   -1.6916    0.0000 C.ar    1  UNL1        0.1381
     17 C           6.2257    0.4008    0.0000 C.ar    1  UNL1        0.1381
     18 C           2.0981    0.6744    0.0000 C.3     1  UNL1       -0.0626
     19 C           3.5981    1.5404    0.0000 C.3     1  UNL1       -0.0626
     20 C           5.4641   -2.6916    0.0000 C.ar    1  UNL1        0.0405
     21 C           5.5416    2.2802    0.0000 C.ar    1  UNL1        0.0403
     22 C           3.7320   -2.6916    0.0000 C.ar    1  UNL1        0.1008
     23 C           6.8685    1.1668    0.0000 C.ar    1  UNL1        0.1005
     24 C           4.5981   -3.1916    0.0000 C.ar    1  UNL1        0.1410
     25 C           6.5264    2.1065    0.0000 C.ar    1  UNL1        0.1378
     26 C           6.3301   -3.1916    0.0000 C.3     1  UNL1       -0.0023
     27 C           5.1996    3.2198    0.0000 C.3     1  UNL1       -0.0023
     28 C           2.8660   -3.1916    0.0000 C.2     1  UNL1        0.1672
     29 C           7.8533    0.9932    0.0000 C.2     1  UNL1        0.1671
     30 C           6.3301   -4.1916    0.0000 C.2     1  UNL1       -0.0807
     31 C           5.8424    3.9859    0.0000 C.2     1  UNL1       -0.0807
     32 C           2.8660   -4.1916    0.0000 C.3     1  UNL1       -0.0012
     33 C           8.4960    1.7592    0.0000 C.3     1  UNL1       -0.0012
     34 C           7.1962   -4.6916    0.0000 C.2     1  UNL1       -0.0793
     35 C           5.5004    4.9256    0.0000 C.2     1  UNL1       -0.0793
     36 C           5.4641   -4.6916    0.0000 C.3     1  UNL1        0.0788
     37 C           7.1962   -5.6916    0.0000 C.3     1  UNL1       -0.0440
     38 C           8.0622   -4.1916    0.0000 C.3     1  UNL1       -0.0440
     39 C           6.1432    5.6916    0.0000 C.3     1  UNL1       -0.0440
     40 C           4.5156    5.0992    0.0000 C.3     1  UNL1       -0.0440
     41 H           4.2388    0.5787    0.0000 H       1  UNL1        0.0402
     42 H           3.0155   -0.4037    0.0000 H       1  UNL1        0.0277
     43 H           3.7057   -0.8022    0.0000 H       1  UNL1        0.0277
     44 H           3.7181    0.6744    0.0000 H       1  UNL1        0.0296
     45 H           2.0981    1.2944    0.0000 H       1  UNL1        0.0232
     46 H           1.4781    0.6744    0.0000 H       1  UNL1        0.0232
     47 H           2.0981    0.0544    0.0000 H       1  UNL1        0.0232
     48 H           4.1350    1.2304    0.0000 H       1  UNL1        0.0232
     49 H           3.9081    2.0774    0.0000 H       1  UNL1        0.0232
     50 H           3.0611    1.8504    0.0000 H       1  UNL1        0.0232
     51 H           6.9407   -3.2993    0.0000 H       1  UNL1        0.0358
     52 H           6.5422   -2.6090    0.0000 H       1  UNL1        0.0358
     53 H           4.8011    3.6948    0.0000 H       1  UNL1        0.0358
     54 H           4.6627    2.9098    0.0000 H       1  UNL1        0.0358
     55 H           6.8671   -1.5016    0.0000 H       1  UNL1        0.2922
     56 H           4.2405    2.7675    0.0000 H       1  UNL1        0.2922
     57 H           2.3291   -1.5016    0.0000 H       1  UNL1        0.2922
     58 H           5.6888   -0.9093    0.0000 H       1  UNL1        0.2922
     59 H           5.7932   -4.5016    0.0000 H       1  UNL1        0.0575
     60 H           6.4530    3.8782    0.0000 H       1  UNL1        0.0575
     61 H           6.9572    3.4552    0.0000 H       1  UNL1        0.2922
     62 H           2.2460   -4.1916    0.0000 H       1  UNL1        0.0309
     63 H           2.8660   -4.8116    0.0000 H       1  UNL1        0.0309
     64 H           3.4860   -4.1916    0.0000 H       1  UNL1        0.0309
     65 H           8.9710    1.3607    0.0000 H       1  UNL1        0.0309
     66 H           8.8946    2.2342    0.0000 H       1  UNL1        0.0309
     67 H           8.0211    2.1577    0.0000 H       1  UNL1        0.0309
     68 H           5.1541   -5.2286    0.0000 H       1  UNL1        0.0660
     69 H           6.0010   -5.0016    0.0000 H       1  UNL1        0.0660
     70 H           5.7741   -4.1547    0.0000 H       1  UNL1        0.0660
     71 H           6.5762   -5.6916    0.0000 H       1  UNL1        0.0274
     72 H           7.1962   -6.3116    0.0000 H       1  UNL1        0.0274
     73 H           7.8162   -5.6916    0.0000 H       1  UNL1        0.0274
     74 H           8.3722   -4.7286    0.0000 H       1  UNL1        0.0274
     75 H           8.5991   -3.8816    0.0000 H       1  UNL1        0.0274
     76 H           7.7522   -3.6547    0.0000 H       1  UNL1        0.0274
     77 H           6.6181    5.2931    0.0000 H       1  UNL1        0.0274
     78 H           6.5417    6.1666    0.0000 H       1  UNL1        0.0274
     79 H           5.6682    6.0902    0.0000 H       1  UNL1        0.0274
     80 H           4.6232    5.7098    0.0000 H       1  UNL1        0.0274
     81 H           3.9050    5.2069    0.0000 H       1  UNL1        0.0274
     82 H           4.4079    4.4886    0.0000 H       1  UNL1        0.0274
@<TRIPOS>BOND
     1     1    14    1
     2     1    55    1
     3     2    15    1
     4     2    56    1
     5     3    16    1
     6     3    57    1
     7     4    17    1
     8     4    58    1
     9     5    24    1
    10     5    36    1
    11     6    25    1
    12     6    61    1
    13     7    28    2
    14     8    29    2
    15     9    10    1
    16     9    12    1
    17     9    13    1
    18     9    41    1
    19    10    11    1
    20    10    42    1
    21    10    43    1
    22    11    18    1
    23    11    19    1
    24    11    44    1
    25    12    14   ar
    26    12    16   ar
    27    13    15   ar
    28    13    17   ar
    29    14    20   ar
    30    15    21   ar
    31    16    22   ar
    32    17    23   ar
    33    18    45    1
    34    18    46    1
    35    18    47    1
    36    19    48    1
    37    19    49    1
    38    19    50    1
    39    20    24   ar
    40    20    26    1
    41    21    25   ar
    42    21    27    1
    43    22    24   ar
    44    22    28    1
    45    23    25   ar
    46    23    29    1
    47    26    30    1
    48    26    51    1
    49    26    52    1
    50    27    31    1
    51    27    53    1
    52    27    54    1
    53    28    32    1
    54    29    33    1
    55    30    34    2
    56    30    59    1
    57    31    35    2
    58    31    60    1
    59    32    62    1
    60    32    63    1
    61    32    64    1
    62    33    65    1
    63    33    66    1
    64    33    67    1
    65    34    37    1
    66    34    38    1
    67    35    39    1
    68    35    40    1
    69    36    68    1
    70    36    69    1
    71    36    70    1
    72    37    71    1
    73    37    72    1
    74    37    73    1
    75    38    74    1
    76    38    75    1
    77    38    76    1
    78    39    77    1
    79    39    78    1
    80    39    79    1
    81    40    80    1
    82    40    81    1
    83    40    82    1
