@<TRIPOS>MOLECULE
IMPHY014566
 167 168 0 0 0
SMALL
GASTEIGER

@<TRIPOS>ATOM
      1 O          11.9965   -3.3553    0.0000 O.2     4  ILE4       -0.2738
      2 O           9.2645   -5.8553    0.0000 O.2     3  LYS3       -0.2738
      3 O           6.5324   -3.3553    0.0000 O.2     2  HIS2       -0.2738
      4 OG1        16.9292    4.1447    0.0000 O.3     6  THR6       -0.3897
      5 O          14.7286   -5.8553    0.0000 O.2     5  ALA5       -0.2738
      6 O          15.1972    1.1447    0.0000 O.2     6  THR6       -0.2737
      7 O          12.4651    3.6447    0.0000 O.2     7  PHE7       -0.2738
      8 O           9.7331    1.1447    0.0000 O.2     8  GLN8       -0.2738
      9 O           7.0010    3.6447    0.0000 O.2     9  GLU9       -0.2738
     10 O           3.8004   -5.8553    0.0000 O.2     1  GLY1       -0.2744
     11 OE1        10.5991    5.6447    0.0000 O.2     8  GLN8       -0.2760
     12 O           3.4030    2.6447    0.0000 O.3    10  ARG10      -0.4793
     13 OE1         6.1350   -0.8553    0.0000 O.3     9  GLU9       -0.4806
     14 OXT         4.2690    1.1447    0.0000 O.2    10  ARG10      -0.2489
     15 OE2         7.8671   -0.8553    0.0000 O.2     9  GLU9       -0.2510
     16 N          10.2645   -4.3553    0.0000 N.am    4  ILE4       -0.3022
     17 N           7.5324   -4.8553    0.0000 N.am    3  LYS3       -0.3025
     18 N          12.9965   -4.8553    0.0000 N.am    5  ALA5       -0.3027
     19 N          16.9292    2.1447    0.0000 N.am    6  THR6       -0.3004
     20 N          14.1972    2.6447    0.0000 N.am    7  PHE7       -0.3021
     21 N          11.4651    2.1447    0.0000 N.am    8  GLN8       -0.3025
     22 N           4.8004   -4.3553    0.0000 N.am    2  HIS2       -0.3026
     23 N           8.7331    2.6447    0.0000 N.am    9  GLU9       -0.3025
     24 NZ         10.9965   -1.8553    0.0000 N.3     3  LYS3       -0.3300
     25 N           6.0010    2.1447    0.0000 N.am   10  ARG10      -0.3008
     26 ND1         6.6370   -7.3498    0.0000 N.ar    2  HIS2       -0.3481
     27 NE2         8.1151   -6.6917    0.0000 N.ar    2  HIS2       -0.2440
     28 NE2         8.8671    5.6447    0.0000 N.am    8  GLN8       -0.3293
     29 N           2.0684   -4.8553    0.0000 N.3     1  GLY1       -0.3225
     30 NE          3.4030    5.6447    0.0000 N.pl3  10  ARG10      -0.1138
     31 NH1         2.5369    7.1447    0.0000 N.pl3  10  ARG10      -0.2893
     32 NH2         4.2690    7.1447    0.0000 N.pl3  10  ARG10      -0.2893
     33 CB         11.1305   -5.8553    0.0000 C.3     4  ILE4       -0.0171
     34 CA         11.1305   -4.8553    0.0000 C.3     4  ILE4        0.1020
     35 CG1        11.9965   -6.3553    0.0000 C.3     4  ILE4       -0.0512
     36 CA          8.3985   -4.3553    0.0000 C.3     3  LYS3        0.0994
     37 CB          8.3985   -3.3553    0.0000 C.3     3  LYS3       -0.0259
     38 CG2        10.2645   -6.3553    0.0000 C.3     4  ILE4       -0.0603
     39 C          11.9965   -4.3553    0.0000 C.2     4  ILE4        0.2342
     40 C           9.2645   -4.8553    0.0000 C.2     3  LYS3        0.2340
     41 CG          9.2645   -2.8553    0.0000 C.3     3  LYS3       -0.0498
     42 CD1        11.9965   -7.3553    0.0000 C.3     4  ILE4       -0.0650
     43 CA         13.8626   -4.3553    0.0000 C.3     5  ALA5        0.0966
     44 CD          9.2645   -1.8553    0.0000 C.3     3  LYS3       -0.0406
     45 CA         16.0632    2.6447    0.0000 C.3     6  THR6        0.1252
     46 CA          5.6664   -4.8553    0.0000 C.3     2  HIS2        0.1047
     47 C           6.5324   -4.3553    0.0000 C.2     2  HIS2        0.2343
     48 C          14.7286   -4.8553    0.0000 C.2     5  ALA5        0.2337
     49 CA         13.3312    2.1447    0.0000 C.3     7  PHE7        0.1034
     50 CE         10.1305   -1.3553    0.0000 C.3     3  LYS3       -0.0069
     51 CA         10.5991    2.6447    0.0000 C.3     8  GLN8        0.0999
     52 CB         13.8626   -3.3553    0.0000 C.3     5  ALA5       -0.0381
     53 CB         16.0632    3.6447    0.0000 C.3     6  THR6        0.0792
     54 CB          5.6664   -5.8553    0.0000 C.3     2  HIS2        0.0160
     55 C          15.1972    2.1447    0.0000 C.2     6  THR6        0.2365
     56 CB         13.3312    1.1447    0.0000 C.3     7  PHE7       -0.0007
     57 CB         10.5991    3.6447    0.0000 C.3     8  GLN8       -0.0177
     58 CA          7.8671    2.1447    0.0000 C.3     9  GLU9        0.0999
     59 C          12.4651    2.6447    0.0000 C.2     7  PHE7        0.2343
     60 C           9.7331    2.1447    0.0000 C.2     8  GLN8        0.2340
     61 CB          7.8671    1.1447    0.0000 C.3     9  GLU9       -0.0159
     62 CG          6.5324   -6.3553    0.0000 C.ar    2  HIS2        0.0375
     63 CG2        15.1972    4.1447    0.0000 C.3     6  THR6       -0.0367
     64 CG          9.7331    4.1447    0.0000 C.3     8  GLN8        0.0259
     65 CG         12.4651    0.6447    0.0000 C.ar    7  PHE7       -0.0451
     66 C           7.0010    2.6447    0.0000 C.2     9  GLU9        0.2340
     67 CA          5.1350    2.6447    0.0000 C.3    10  ARG10       0.1203
     68 CG          7.0010    0.6447    0.0000 C.3     9  GLU9        0.0469
     69 CB          5.1350    3.6447    0.0000 C.3    10  ARG10      -0.0211
     70 C           3.8004   -4.8553    0.0000 C.2     1  GLY1        0.2273
     71 CG          4.2690    4.1447    0.0000 C.3    10  ARG10      -0.0164
     72 CD2         7.4460   -5.9486    0.0000 C.ar    2  HIS2        0.0485
     73 CD1        11.5991    1.1447    0.0000 C.ar    7  PHE7       -0.0585
     74 CD2        12.4651   -0.3553    0.0000 C.ar    7  PHE7       -0.0585
     75 CD          9.7331    5.1447    0.0000 C.2     8  GLN8        0.2106
     76 CA          2.9344   -4.3553    0.0000 C.3     1  GLY1        0.0707
     77 C           4.2690    2.1447    0.0000 C.2    10  ARG10       0.3253
     78 CE1         7.6151   -7.5577    0.0000 C.ar    2  HIS2        0.0935
     79 CD          4.2690    5.1447    0.0000 C.3    10  ARG10       0.1048
     80 CD          7.0010   -0.3553    0.0000 C.2     9  GLU9        0.3048
     81 CE1        10.7331    0.6447    0.0000 C.ar    7  PHE7       -0.0615
     82 CE2        11.5991   -0.8553    0.0000 C.ar    7  PHE7       -0.0615
     83 CZ         10.7331   -0.3553    0.0000 C.ar    7  PHE7       -0.0617
     84 CZ          3.4030    6.6447    0.0000 C.cat  10  ARG10       0.3765
     85 HB         11.1305   -6.4753    0.0000 H       4  ILE4        0.0321
     86 HA         10.5936   -5.1653    0.0000 H       4  ILE4        0.0597
     87 HG11       12.6071   -6.4630    0.0000 H       4  ILE4        0.0266
     88 HG12       12.2086   -5.7727    0.0000 H       4  ILE4        0.0266
     89 HA          7.8615   -4.0453    0.0000 H       3  LYS3        0.0594
     90 H          10.8014   -4.0453    0.0000 H       4  ILE4        0.1495
     91 HB1         8.1864   -2.7727    0.0000 H       3  LYS3        0.0288
     92 HB2         7.7879   -3.4630    0.0000 H       3  LYS3        0.0288
     93 HG21        9.9545   -5.8184    0.0000 H       4  ILE4        0.0233
     94 HG22        9.7276   -6.6653    0.0000 H       4  ILE4        0.0233
     95 HG23       10.5745   -6.8922    0.0000 H       4  ILE4        0.0233
     96 HG1         9.4766   -3.4379    0.0000 H       3  LYS3        0.0266
     97 HG2         9.8751   -2.7476    0.0000 H       3  LYS3        0.0266
     98 HD11       11.3765   -7.3553    0.0000 H       4  ILE4        0.0230
     99 HD12       11.9965   -7.9753    0.0000 H       4  ILE4        0.0230
    100 HD13       12.6165   -7.3553    0.0000 H       4  ILE4        0.0230
    101 H           8.0694   -5.1653    0.0000 H       3  LYS3        0.1495
    102 H          13.5335   -5.1653    0.0000 H       5  ALA5        0.1495
    103 HA         13.3256   -4.0453    0.0000 H       5  ALA5        0.0592
    104 HD1         9.0524   -1.2727    0.0000 H       3  LYS3        0.0277
    105 HD2         8.6539   -1.9630    0.0000 H       3  LYS3        0.0277
    106 HA         16.0632    2.0247    0.0000 H       6  THR6        0.0621
    107 HA          5.1295   -5.1653    0.0000 H       2  HIS2        0.0598
    108 HA         13.8681    1.8347    0.0000 H       7  PHE7        0.0598
    109 HE1        10.5290   -0.8804    0.0000 H       3  LYS3        0.0422
    110 HE2         9.7320   -0.8804    0.0000 H       3  LYS3        0.0422
    111 H          17.4662    1.8347    0.0000 H       6  THR6        0.1496
    112 HA         11.1360    2.9547    0.0000 H       8  GLN8        0.0595
    113 HB1        14.4826   -3.3553    0.0000 H       5  ALA5        0.0252
    114 HB2        13.8626   -2.7353    0.0000 H       5  ALA5        0.0252
    115 HB3        13.2426   -3.3553    0.0000 H       5  ALA5        0.0252
    116 HB         16.6001    3.3347    0.0000 H       6  THR6        0.0614
    117 HB1         5.0558   -5.7476    0.0000 H       2  HIS2        0.0351
    118 HB2         5.4544   -6.4379    0.0000 H       2  HIS2        0.0351
    119 HB1        13.5432    0.5621    0.0000 H       7  PHE7        0.0336
    120 HB2        13.9417    1.2524    0.0000 H       7  PHE7        0.0336
    121 H          14.7341    2.9547    0.0000 H       7  PHE7        0.1495
    122 HB1        11.2097    3.5370    0.0000 H       8  GLN8        0.0292
    123 HB2        10.8112    4.2273    0.0000 H       8  GLN8        0.0292
    124 HA          8.4040    1.8347    0.0000 H       9  GLU9        0.0595
    125 H          12.0021    1.8347    0.0000 H       8  GLN8        0.1495
    126 H           5.3373   -4.0453    0.0000 H       2  HIS2        0.1495
    127 HB1         8.0791    0.5621    0.0000 H       9  GLU9        0.0293
    128 HB2         8.4776    1.2524    0.0000 H       9  GLU9        0.0293
    129 H           9.2700    2.9547    0.0000 H       9  GLU9        0.1495
    130 HG21       15.5072    4.6816    0.0000 H       6  THR6        0.0255
    131 HG22       14.6603    4.4547    0.0000 H       6  THR6        0.0255
    132 HG23       14.8872    3.6078    0.0000 H       6  THR6        0.0255
    133 HG1         9.1225    4.2524    0.0000 H       8  GLN8        0.0359
    134 HG2         9.5210    3.5621    0.0000 H       8  GLN8        0.0359
    135 HA          5.6720    2.9547    0.0000 H      10  ARG10       0.0614
    136 HZ1        10.9965   -2.4753    0.0000 H       3  LYS3        0.1182
    137 HZ2        11.5335   -1.5453    0.0000 H       3  LYS3        0.1182
    138 HG1         6.7890    1.2273    0.0000 H       9  GLU9        0.0378
    139 HG2         6.3905    0.5370    0.0000 H       9  GLU9        0.0378
    140 H           6.5380    1.8347    0.0000 H      10  ARG10       0.1496
    141 HB1         5.7456    3.5370    0.0000 H      10  ARG10       0.0289
    142 HB2         5.3471    4.2273    0.0000 H      10  ARG10       0.0289
    143 HG1        16.9292    4.7647    0.0000 H       6  THR6        0.2099
    144 HG1         3.6584    4.2524    0.0000 H      10  ARG10       0.0298
    145 HG2         4.0569    3.5621    0.0000 H      10  ARG10       0.0298
    146 HD1         6.1762   -7.7647    0.0000 H       2  HIS2        0.1665
    147 HD2         7.5749   -5.3421    0.0000 H       2  HIS2        0.0848
    148 HD1        11.5991    1.7647    0.0000 H       7  PHE7        0.0620
    149 HD2        13.0021   -0.6653    0.0000 H       7  PHE7        0.0620
    150 HA1         3.3329   -3.8804    0.0000 H       1  GLY1        0.0518
    151 HA2         2.5358   -3.8804    0.0000 H       1  GLY1        0.0518
    152 HD1         4.8796    5.0370    0.0000 H      10  ARG10       0.0693
    153 HD2         4.4810    5.7273    0.0000 H      10  ARG10       0.0693
    154 HE1         7.8673   -8.1241    0.0000 H       2  HIS2        0.1027
    155 HE1        10.1962    0.9547    0.0000 H       7  PHE7        0.0618
    156 HE2        11.5991   -1.4753    0.0000 H       7  PHE7        0.0618
    157 HZ         10.1962   -0.6653    0.0000 H       7  PHE7        0.0618
    158 HE21        8.8671    6.2647    0.0000 H       8  GLN8        0.1449
    159 HE22        8.3301    5.3347    0.0000 H       8  GLN8        0.1449
    160 H1          2.0684   -5.4753    0.0000 H       1  GLY1        0.1186
    161 H2          2.6053   -4.5453    0.0000 H       1  GLY1        0.1186
    162 H           2.8660    2.3347    0.0000 H      10  ARG10       0.2951
    163 HE1         5.5981   -0.5453    0.0000 H       9  GLU9        0.2951
    164 HH11        2.5369    7.7647    0.0000 H      10  ARG10       0.2546
    165 HH12        2.0000    6.8347    0.0000 H      10  ARG10       0.2546
    166 HH21        4.2690    7.7647    0.0000 H      10  ARG10       0.2546
    167 HH22        4.8059    6.8347    0.0000 H      10  ARG10       0.2546
@<TRIPOS>BOND
     1     1    39    2
     2     2    40    2
     3     3    47    2
     4    53     4    1
     5     4   143    1
     6     5    48    2
     7     6    55    2
     8     7    59    2
     9     8    60    2
    10     9    66    2
    11    10    70    2
    12    11    75    2
    13    12    77    1
    14    12   162    1
    15    13    80    1
    16    13   163    1
    17    14    77    2
    18    15    80    2
    19    34    16    1
    20    16    40   am
    21    16    90    1
    22    36    17    1
    23    17    47   am
    24    17   101    1
    25    18    39   am
    26    43    18    1
    27    18   102    1
    28    45    19    1
    29    19    48   am
    30    19   111    1
    31    49    20    1
    32    20    55   am
    33    20   121    1
    34    51    21    1
    35    21    59   am
    36    21   125    1
    37    46    22    1
    38    22    70   am
    39    22   126    1
    40    58    23    1
    41    23    60   am
    42    23   129    1
    43    24    50    1
    44    24   136    1
    45    24   137    1
    46    25    66   am
    47    67    25    1
    48    25   140    1
    49    26    62   ar
    50    26    78   ar
    51    26   146    1
    52    27    72   ar
    53    27    78   ar
    54    28    75   am
    55    28   158    1
    56    28   159    1
    57    29    76    1
    58    29   160    1
    59    29   161    1
    60    30    79    1
    61    30    84    2
    62    31    84    1
    63    31   164    1
    64    31   165    1
    65    32    84    1
    66    32   166    1
    67    32   167    1
    68    33    34    1
    69    33    35    1
    70    33    38    1
    71    33    85    1
    72    34    39    1
    73    34    86    1
    74    35    42    1
    75    35    87    1
    76    35    88    1
    77    36    37    1
    78    36    40    1
    79    36    89    1
    80    37    41    1
    81    37    91    1
    82    37    92    1
    83    38    93    1
    84    38    94    1
    85    38    95    1
    86    41    44    1
    87    41    96    1
    88    41    97    1
    89    42    98    1
    90    42    99    1
    91    42   100    1
    92    43    48    1
    93    43    52    1
    94    43   103    1
    95    44    50    1
    96    44   104    1
    97    44   105    1
    98    45    53    1
    99    45    55    1
   100    45   106    1
   101    46    47    1
   102    46    54    1
   103    46   107    1
   104    49    56    1
   105    49    59    1
   106    49   108    1
   107    50   109    1
   108    50   110    1
   109    51    57    1
   110    51    60    1
   111    51   112    1
   112    52   113    1
   113    52   114    1
   114    52   115    1
   115    53    63    1
   116    53   116    1
   117    54    62    1
   118    54   117    1
   119    54   118    1
   120    56    65    1
   121    56   119    1
   122    56   120    1
   123    57    64    1
   124    57   122    1
   125    57   123    1
   126    58    61    1
   127    58    66    1
   128    58   124    1
   129    61    68    1
   130    61   127    1
   131    61   128    1
   132    62    72   ar
   133    63   130    1
   134    63   131    1
   135    63   132    1
   136    64    75    1
   137    64   133    1
   138    64   134    1
   139    65    73   ar
   140    65    74   ar
   141    67    69    1
   142    67    77    1
   143    67   135    1
   144    68    80    1
   145    68   138    1
   146    68   139    1
   147    69    71    1
   148    69   141    1
   149    69   142    1
   150    70    76    1
   151    71    79    1
   152    71   144    1
   153    71   145    1
   154    72   147    1
   155    73    81   ar
   156    73   148    1
   157    74    82   ar
   158    74   149    1
   159    76   150    1
   160    76   151    1
   161    78   154    1
   162    79   152    1
   163    79   153    1
   164    81    83   ar
   165    81   155    1
   166    82    83   ar
   167    82   156    1
   168    83   157    1
