@<TRIPOS>MOLECULE
IMPHY017133
 27 27 0 0 0
SMALL
GASTEIGER

@<TRIPOS>ATOM
      1 C           2.8660   -0.2500    0.0000 C.3     1  UNL1       -0.0410
      2 C           2.0000   -0.7500    0.0000 C.3     1  UNL1       -0.0502
      3 C           3.7320   -0.7500    0.0000 C.3     1  UNL1       -0.0502
      4 C           2.0000   -1.7500    0.0000 C.3     1  UNL1       -0.0528
      5 C           3.7320   -1.7500    0.0000 C.3     1  UNL1       -0.0528
      6 C           2.8660   -2.2500    0.0000 C.3     1  UNL1       -0.0530
      7 C           2.8660    0.7500    0.0000 C.3     1  UNL1       -0.0505
      8 C           3.7320    1.2500    0.0000 C.3     1  UNL1       -0.0557
      9 C           3.7320    2.2500    0.0000 C.3     1  UNL1       -0.0653
     10 H           3.4030    0.0600    0.0000 H       1  UNL1        0.0301
     11 H           1.7880   -0.1674    0.0000 H       1  UNL1        0.0268
     12 H           1.3894   -0.8577    0.0000 H       1  UNL1        0.0268
     13 H           4.3426   -0.8577    0.0000 H       1  UNL1        0.0268
     14 H           3.9441   -0.1674    0.0000 H       1  UNL1        0.0268
     15 H           1.3894   -1.6423    0.0000 H       1  UNL1        0.0265
     16 H           1.7880   -2.3326    0.0000 H       1  UNL1        0.0265
     17 H           3.9441   -2.3326    0.0000 H       1  UNL1        0.0265
     18 H           4.3426   -1.6423    0.0000 H       1  UNL1        0.0265
     19 H           2.4675   -2.7250    0.0000 H       1  UNL1        0.0265
     20 H           3.2646   -2.7250    0.0000 H       1  UNL1        0.0265
     21 H           2.6540    1.3326    0.0000 H       1  UNL1        0.0268
     22 H           2.2554    0.6423    0.0000 H       1  UNL1        0.0268
     23 H           3.9441    0.6674    0.0000 H       1  UNL1        0.0263
     24 H           4.3426    1.3577    0.0000 H       1  UNL1        0.0263
     25 H           4.3520    2.2500    0.0000 H       1  UNL1        0.0230
     26 H           3.7320    2.8700    0.0000 H       1  UNL1        0.0230
     27 H           3.1120    2.2500    0.0000 H       1  UNL1        0.0230
@<TRIPOS>BOND
     1     1     2    1
     2     1     3    1
     3     1     7    1
     4     1    10    1
     5     2     4    1
     6     2    11    1
     7     2    12    1
     8     3     5    1
     9     3    13    1
    10     3    14    1
    11     4     6    1
    12     4    15    1
    13     4    16    1
    14     5     6    1
    15     5    17    1
    16     5    18    1
    17     6    19    1
    18     6    20    1
    19     7     8    1
    20     7    21    1
    21     7    22    1
    22     8     9    1
    23     8    23    1
    24     8    24    1
    25     9    25    1
    26     9    26    1
    27     9    27    1
