@<TRIPOS>MOLECULE
IMPHY000738
 49 50 0 0 0
SMALL
GASTEIGER

@<TRIPOS>ATOM
      1 S           6.0010   -0.5950    0.0000 S.3     1  UNL1       -0.0727
      2 S           4.2690    2.4050    0.0000 S.O2    1  UNL1        0.2709
      3 O           4.2690   -0.5950    0.0000 O.3     1  UNL1       -0.3549
      4 O           4.2690   -3.5950    0.0000 O.3     1  UNL1       -0.3865
      5 O           2.5369   -2.5950    0.0000 O.3     1  UNL1       -0.3865
      6 O           6.0010   -2.5950    0.0000 O.3     1  UNL1       -0.3857
      7 O           2.5369    0.4050    0.0000 O.3     1  UNL1       -0.3924
      8 O           6.0010    2.4050    0.0000 O.3     1  UNL1       -0.3868
      9 O           5.1350    1.9050    0.0000 O.2     1  UNL1       -0.2068
     10 O           3.4030    2.9050    0.0000 O.3     1  UNL1       -0.2209
     11 O           4.7690    3.2710    0.0000 O.2     1  UNL1       -0.1060
     12 O           3.7690    1.5390    0.0000 O.2     1  UNL1       -0.1060
     13 N           5.1350    0.9050    0.0000 N.2     1  UNL1       -0.0482
     14 C           4.2690   -2.5950    0.0000 C.3     1  UNL1        0.1126
     15 C           3.4030   -2.0950    0.0000 C.3     1  UNL1        0.1118
     16 C           5.1350   -2.0950    0.0000 C.3     1  UNL1        0.1192
     17 C           3.4030   -1.0950    0.0000 C.3     1  UNL1        0.1115
     18 C           5.1350   -1.0950    0.0000 C.3     1  UNL1        0.1384
     19 C           2.5369   -0.5950    0.0000 C.3     1  UNL1        0.0730
     20 C           6.0010    0.4050    0.0000 C.2     1  UNL1        0.1209
     21 C           6.8671    0.9050    0.0000 C.3     1  UNL1        0.0293
     22 C           6.8671    1.9050    0.0000 C.3     1  UNL1        0.0862
     23 C           7.7331    2.4050    0.0000 C.ar    1  UNL1       -0.0188
     24 C           8.5991    1.9050    0.0000 C.ar    1  UNL1       -0.0561
     25 C           7.7331    3.4050    0.0000 C.ar    1  UNL1       -0.0561
     26 C           9.4651    2.4050    0.0000 C.ar    1  UNL1       -0.0614
     27 C           8.5991    3.9050    0.0000 C.ar    1  UNL1       -0.0614
     28 C           9.4651    3.4050    0.0000 C.ar    1  UNL1       -0.0617
     29 H           4.8059   -2.9050    0.0000 H       1  UNL1        0.0647
     30 H           3.4030   -2.7150    0.0000 H       1  UNL1        0.0647
     31 H           5.6720   -1.7850    0.0000 H       1  UNL1        0.0655
     32 H           3.4030   -0.4750    0.0000 H       1  UNL1        0.0646
     33 H           5.1350   -0.4750    0.0000 H       1  UNL1        0.0743
     34 H           1.9264   -0.4873    0.0000 H       1  UNL1        0.0584
     35 H           2.3249   -1.1776    0.0000 H       1  UNL1        0.0584
     36 H           3.7320   -3.9050    0.0000 H       1  UNL1        0.2100
     37 H           2.0000   -2.2850    0.0000 H       1  UNL1        0.2100
     38 H           6.5380   -2.2850    0.0000 H       1  UNL1        0.2100
     39 H           7.0791    0.3224    0.0000 H       1  UNL1        0.0363
     40 H           7.4776    1.0127    0.0000 H       1  UNL1        0.0363
     41 H           6.3301    1.5950    0.0000 H       1  UNL1        0.0647
     42 H           2.0000    0.7150    0.0000 H       1  UNL1        0.2095
     43 H           8.5991    1.2850    0.0000 H       1  UNL1        0.0621
     44 H           7.1962    3.7150    0.0000 H       1  UNL1        0.0621
     45 H           6.0010    3.0250    0.0000 H       1  UNL1        0.2102
     46 H          10.0021    2.0950    0.0000 H       1  UNL1        0.0618
     47 H           8.5991    4.5250    0.0000 H       1  UNL1        0.0618
     48 H          10.0021    3.7150    0.0000 H       1  UNL1        0.0618
     49 H           3.4030    3.5250    0.0000 H       1  UNL1        0.2480
@<TRIPOS>BOND
     1    18     1    1
     2     1    20    1
     3     2     9    1
     4     2    10    1
     5     2    11    2
     6     2    12    2
     7     3    17    1
     8     3    18    1
     9    14     4    1
    10     4    36    1
    11    15     5    1
    12     5    37    1
    13    16     6    1
    14     6    38    1
    15     7    19    1
    16     7    42    1
    17     8    22    1
    18     8    45    1
    19     9    13    1
    20    10    49    1
    21    13    20    2
    22    14    15    1
    23    14    16    1
    24    14    29    1
    25    15    17    1
    26    15    30    1
    27    16    18    1
    28    16    31    1
    29    17    19    1
    30    17    32    1
    31    18    33    1
    32    19    34    1
    33    19    35    1
    34    20    21    1
    35    21    22    1
    36    21    39    1
    37    21    40    1
    38    22    23    1
    39    22    41    1
    40    23    24   ar
    41    23    25   ar
    42    24    26   ar
    43    24    43    1
    44    25    27   ar
    45    25    44    1
    46    26    28   ar
    47    26    46    1
    48    27    28   ar
    49    27    47    1
    50    28    48    1
