@<TRIPOS>MOLECULE
IMPHY004681
 31 33 0 0 0
SMALL
GASTEIGER

@<TRIPOS>ATOM
      1 O           6.0812    0.0408    0.0000 O.3     1  UNL1       -0.4512
      2 O           4.2690    2.8455    0.0000 O.3     1  UNL1       -0.5058
      3 O           6.3919    2.6008    0.0000 O.2     1  UNL1       -0.2831
      4 O           2.5369   -0.1545    0.0000 O.3     1  UNL1       -0.5065
      5 O           7.6648   -2.6186    0.0000 O.3     1  UNL1       -0.5033
      6 O           9.6648   -2.6186    0.0000 O.3     1  UNL1       -0.5033
      7 C           5.1350    1.3455    0.0000 C.ar    1  UNL1        0.1091
      8 C           5.1350    0.3455    0.0000 C.ar    1  UNL1        0.1465
      9 C           6.6648    0.8455    0.0000 C.2     1  UNL1        0.1763
     10 C           6.0812    1.6502    0.0000 C.2     1  UNL1        0.2350
     11 C           4.2690    1.8455    0.0000 C.ar    1  UNL1        0.1348
     12 C           7.6648    0.8455    0.0000 C.2     1  UNL1       -0.0082
     13 C           4.2690   -0.1545    0.0000 C.ar    1  UNL1        0.0231
     14 C           8.1648   -0.0205    0.0000 C.ar    1  UNL1       -0.0178
     15 C           3.4030    1.3455    0.0000 C.ar    1  UNL1        0.0223
     16 C           3.4030    0.3455    0.0000 C.ar    1  UNL1        0.1239
     17 C           7.6648   -0.8865    0.0000 C.ar    1  UNL1       -0.0093
     18 C           9.1648   -0.0205    0.0000 C.ar    1  UNL1       -0.0508
     19 C           8.1648   -1.7526    0.0000 C.ar    1  UNL1        0.1588
     20 C           9.6648   -0.8865    0.0000 C.ar    1  UNL1       -0.0160
     21 C           9.1648   -1.7526    0.0000 C.ar    1  UNL1        0.1582
     22 H           7.9748    1.3824    0.0000 H       1  UNL1        0.0661
     23 H           4.2690   -0.7745    0.0000 H       1  UNL1        0.0691
     24 H           2.8660    1.6555    0.0000 H       1  UNL1        0.0691
     25 H           7.0448   -0.8865    0.0000 H       1  UNL1        0.0661
     26 H           9.4748    0.5164    0.0000 H       1  UNL1        0.0625
     27 H          10.2848   -0.8865    0.0000 H       1  UNL1        0.0655
     28 H           3.7320    3.1555    0.0000 H       1  UNL1        0.2922
     29 H           2.0000    0.1555    0.0000 H       1  UNL1        0.2921
     30 H           7.9748   -3.1555    0.0000 H       1  UNL1        0.2923
     31 H          10.2848   -2.6186    0.0000 H       1  UNL1        0.2923
@<TRIPOS>BOND
     1     1     8    1
     2     1     9    1
     3     2    11    1
     4     2    28    1
     5     3    10    2
     6     4    16    1
     7     4    29    1
     8     5    19    1
     9     5    30    1
    10     6    21    1
    11     6    31    1
    12     7     8   ar
    13     7    10    1
    14     7    11   ar
    15     8    13   ar
    16     9    10    1
    17     9    12    2
    18    11    15   ar
    19    12    14    1
    20    12    22    1
    21    13    16   ar
    22    13    23    1
    23    14    17   ar
    24    14    18   ar
    25    15    16   ar
    26    15    24    1
    27    17    19   ar
    28    17    25    1
    29    18    20   ar
    30    18    26    1
    31    19    21   ar
    32    20    21   ar
    33    20    27    1
