@<TRIPOS>MOLECULE
IMPHY004391
 19 20 0 0 0
SMALL
GASTEIGER

@<TRIPOS>ATOM
      1 O           6.0290   -0.3970    0.0000 O.2     1  UNL1       -0.4183
      2 O           4.2690   -1.3623    0.0000 O.3     1  UNL1       -0.5009
      3 O           2.5369   -0.3623    0.0000 O.3     1  UNL1       -0.5032
      4 O           7.7991   -0.3865    0.0000 O.2     1  UNL1       -0.2452
      5 C           5.1350    1.1377    0.0000 C.ar    1  UNL1        0.0215
      6 C           5.1350    0.1377    0.0000 C.ar    1  UNL1        0.1839
      7 C           4.2690   -0.3623    0.0000 C.ar    1  UNL1        0.2021
      8 C           4.2690    1.6377    0.0000 C.ar    1  UNL1       -0.0474
      9 C           3.4030    0.1377    0.0000 C.ar    1  UNL1        0.1620
     10 C           6.0290    1.6723    0.0000 C.ar    1  UNL1       -0.0442
     11 C           3.4030    1.1377    0.0000 C.ar    1  UNL1       -0.0157
     12 C           6.9350    1.1585    0.0000 C.ar    1  UNL1        0.0236
     13 C           6.9350    0.1169    0.0000 C.ar    1  UNL1        0.3373
     14 H           4.2690    2.2577    0.0000 H       1  UNL1        0.0626
     15 H           6.0218    2.2923    0.0000 H       1  UNL1        0.0627
     16 H           2.8660    1.4477    0.0000 H       1  UNL1        0.0655
     17 H           7.4708    1.4706    0.0000 H       1  UNL1        0.0689
     18 H           3.7320   -1.6723    0.0000 H       1  UNL1        0.2924
     19 H           2.0000   -0.0523    0.0000 H       1  UNL1        0.2923
@<TRIPOS>BOND
     1     1     6   ar
     2     1    13   ar
     3     2     7    1
     4     2    18    1
     5     3     9    1
     6     3    19    1
     7     4    13    2
     8     5     6   ar
     9     5     8   ar
    10     5    10   ar
    11     6     7   ar
    12     7     9   ar
    13     8    11   ar
    14     8    14    1
    15     9    11   ar
    16    10    12   ar
    17    10    15    1
    18    11    16    1
    19    12    13   ar
    20    12    17    1
