@<TRIPOS>MOLECULE
IMPHY004897
 47 51 0 0 0
SMALL
GASTEIGER

@<TRIPOS>ATOM
      1 O           8.7180    1.3823    0.0000 O.3     1  UNL1       -0.3711
      2 O           6.4375   -0.6711    0.0000 O.3     1  UNL1       -0.3408
      3 O           5.4658    0.8160    0.0000 O.3     1  UNL1       -0.4631
      4 O          12.3668    0.1925    0.0000 O.3     1  UNL1       -0.4526
      5 O          12.3668   -1.4170    0.0000 O.3     1  UNL1       -0.4526
      6 O           2.0017    0.8100    0.0000 O.3     1  UNL1       -0.4913
      7 O           2.0052   -1.1900    0.0000 O.3     1  UNL1       -0.5033
      8 C           7.9089   -0.0190    0.0000 C.3     1  UNL1        0.0236
      9 C           7.2398    0.7242    0.0000 C.3     1  UNL1        0.0525
     10 C           8.8225    0.3878    0.0000 C.3     1  UNL1        0.0892
     11 C           6.3327    0.3175    0.0000 C.3     1  UNL1        0.2070
     12 C           7.7398    1.5902    0.0000 C.3     1  UNL1        0.0574
     13 C           7.4097   -0.8786    0.0000 C.3     1  UNL1        0.0577
     14 C           9.6885   -0.1122    0.0000 C.ar    1  UNL1       -0.0149
     15 C          10.5545    0.3878    0.0000 C.ar    1  UNL1       -0.0105
     16 C           9.6885   -1.1122    0.0000 C.ar    1  UNL1       -0.0524
     17 C           4.6007    0.3145    0.0000 C.ar    1  UNL1        0.1276
     18 C          11.4206   -0.1122    0.0000 C.ar    1  UNL1        0.1666
     19 C          10.5545   -1.6122    0.0000 C.ar    1  UNL1       -0.0158
     20 C          11.4206   -1.1122    0.0000 C.ar    1  UNL1        0.1662
     21 C           3.7338    0.8130    0.0000 C.ar    1  UNL1        0.0255
     22 C           4.6024   -0.6855    0.0000 C.ar    1  UNL1       -0.0161
     23 C          12.9504   -0.6122    0.0000 C.3     1  UNL1        0.2332
     24 C           2.8686    0.3115    0.0000 C.ar    1  UNL1        0.1647
     25 C           3.7372   -1.1870    0.0000 C.ar    1  UNL1       -0.0131
     26 C           2.8704   -0.6885    0.0000 C.ar    1  UNL1        0.1587
     27 C           2.0000    1.8100    0.0000 C.3     1  UNL1        0.0790
     28 H           8.4769   -0.6514    0.0000 H       1  UNL1        0.0357
     29 H           6.6702    1.3551    0.0000 H       1  UNL1        0.0388
     30 H           9.3424    0.7254    0.0000 H       1  UNL1        0.0650
     31 H           6.3638    0.9367    0.0000 H       1  UNL1        0.1059
     32 H           7.9314    2.1799    0.0000 H       1  UNL1        0.0565
     33 H           7.1734    1.8424    0.0000 H       1  UNL1        0.0565
     34 H           7.2172   -1.4680    0.0000 H       1  UNL1        0.0565
     35 H           7.9756   -1.1319    0.0000 H       1  UNL1        0.0565
     36 H          10.5545    1.0078    0.0000 H       1  UNL1        0.0659
     37 H           9.1516   -1.4222    0.0000 H       1  UNL1        0.0622
     38 H          10.5545   -2.2322    0.0000 H       1  UNL1        0.0655
     39 H           3.7327    1.4330    0.0000 H       1  UNL1        0.0692
     40 H           5.1399   -0.9946    0.0000 H       1  UNL1        0.0655
     41 H          13.4113   -1.0270    0.0000 H       1  UNL1        0.1166
     42 H          13.4113   -0.1975    0.0000 H       1  UNL1        0.1166
     43 H           3.7383   -1.8070    0.0000 H       1  UNL1        0.0656
     44 H           2.0063   -1.8100    0.0000 H       1  UNL1        0.2923
     45 H           2.6200    1.8111    0.0000 H       1  UNL1        0.0660
     46 H           1.9989    2.4300    0.0000 H       1  UNL1        0.0660
     47 H           1.3800    1.8089    0.0000 H       1  UNL1        0.0660
@<TRIPOS>BOND
     1     1    10    1
     2     1    12    1
     3     2    11    1
     4     2    13    1
     5    11     3    1
     6     3    17    1
     7     4    18    1
     8     4    23    1
     9     5    20    1
    10     5    23    1
    11     6    24    1
    12     6    27    1
    13     7    26    1
    14     7    44    1
    15     8     9    1
    16     8    10    1
    17     8    13    1
    18     8    28    1
    19     9    11    1
    20     9    12    1
    21     9    29    1
    22    10    14    1
    23    10    30    1
    24    11    31    1
    25    12    32    1
    26    12    33    1
    27    13    34    1
    28    13    35    1
    29    14    15   ar
    30    14    16   ar
    31    15    18   ar
    32    15    36    1
    33    16    19   ar
    34    16    37    1
    35    17    21   ar
    36    17    22   ar
    37    18    20   ar
    38    19    20   ar
    39    19    38    1
    40    21    24   ar
    41    21    39    1
    42    22    25   ar
    43    22    40    1
    44    23    41    1
    45    23    42    1
    46    24    26   ar
    47    25    26   ar
    48    25    43    1
    49    27    45    1
    50    27    46    1
    51    27    47    1
