@<TRIPOS>MOLECULE
IMPHY001377
 66 69 0 0 0
SMALL
GASTEIGER

@<TRIPOS>ATOM
      1 O           9.4893    1.2989    0.0000 O.3     1  UNL1       -0.3883
      2 O           6.0010    2.1900    0.0000 O.2     1  UNL1       -0.4701
      3 O           6.8671    0.6900    0.0000 O.3     1  UNL1       -0.3083
      4 O           5.1350    0.6900    0.0000 O.3     1  UNL1       -0.3394
      5 O           6.8671   -1.3100    0.0000 O.3     1  UNL1       -0.4504
      6 O           5.1350   -2.3100    0.0000 O.3     1  UNL1       -0.3853
      7 O           6.0010    5.1900    0.0000 O.3     1  UNL1       -0.4773
      8 O           3.4030   -1.3100    0.0000 O.3     1  UNL1       -0.3864
      9 O           7.7331    5.1900    0.0000 O.2     1  UNL1       -0.2454
     10 O           2.5369    0.1900    0.0000 O.3     1  UNL1       -0.3924
     11 O           6.0010   -2.8100    0.0000 O.2     1  UNL1       -0.2456
     12 C           7.7331    2.1900    0.0000 C.3     1  UNL1        0.0572
     13 C           8.6793    1.8853    0.0000 C.3     1  UNL1        0.0724
     14 C           7.7331    3.1900    0.0000 C.3     1  UNL1        0.0050
     15 C           9.2629    2.6900    0.0000 C.3     1  UNL1       -0.0232
     16 C           8.6793    3.4947    0.0000 C.3     1  UNL1       -0.0427
     17 C           6.8671    1.6900    0.0000 C.3     1  UNL1        0.2095
     18 C           6.8671    3.6900    0.0000 C.2     1  UNL1        0.0742
     19 C           8.3719    0.9337    0.0000 C.3     1  UNL1       -0.0356
     20 C           6.0010    3.1900    0.0000 C.2     1  UNL1        0.0981
     21 C           6.0010    0.1900    0.0000 C.3     1  UNL1        0.2029
     22 C           6.0010   -0.8100    0.0000 C.3     1  UNL1        0.1820
     23 C           6.8671    4.6900    0.0000 C.2     1  UNL1        0.3360
     24 C           5.1350   -1.3100    0.0000 C.3     1  UNL1        0.1251
     25 C           4.2690   -0.8100    0.0000 C.3     1  UNL1        0.1130
     26 C           4.2690    0.1900    0.0000 C.3     1  UNL1        0.1131
     27 C           3.4030    0.6900    0.0000 C.3     1  UNL1        0.0730
     28 C           6.8671   -2.3100    0.0000 C.2     1  UNL1        0.3324
     29 C           7.7331   -2.8100    0.0000 C.2     1  UNL1        0.0231
     30 C           7.7331   -3.8100    0.0000 C.2     1  UNL1       -0.0478
     31 C           8.5991   -4.3100    0.0000 C.ar    1  UNL1       -0.0248
     32 C           8.5991   -5.3100    0.0000 C.ar    1  UNL1       -0.0546
     33 C           9.4651   -3.8100    0.0000 C.ar    1  UNL1       -0.0546
     34 C           9.4651   -5.8100    0.0000 C.ar    1  UNL1       -0.0612
     35 C          10.3312   -4.3100    0.0000 C.ar    1  UNL1       -0.0612
     36 C          10.3312   -5.3100    0.0000 C.ar    1  UNL1       -0.0617
     37 H           7.8230    1.3448    0.0000 H       1  UNL1        0.0395
     38 H           7.8230    4.0352    0.0000 H       1  UNL1        0.0358
     39 H           9.7238    2.2753    0.0000 H       1  UNL1        0.0293
     40 H           9.7238    3.1047    0.0000 H       1  UNL1        0.0293
     41 H           9.2167    3.8040    0.0000 H       1  UNL1        0.0272
     42 H           8.4283    4.0616    0.0000 H       1  UNL1        0.0272
     43 H           7.4040    1.3800    0.0000 H       1  UNL1        0.1060
     44 H           7.7820    1.1242    0.0000 H       1  UNL1        0.0257
     45 H           8.1814    0.3437    0.0000 H       1  UNL1        0.0257
     46 H           8.9619    0.7431    0.0000 H       1  UNL1        0.0257
     47 H          10.0553    1.5520    0.0000 H       1  UNL1        0.2102
     48 H           5.4641    3.5000    0.0000 H       1  UNL1        0.1029
     49 H           6.0010    0.8100    0.0000 H       1  UNL1        0.0951
     50 H           6.0010   -1.4300    0.0000 H       1  UNL1        0.0813
     51 H           4.5981   -1.6200    0.0000 H       1  UNL1        0.0659
     52 H           3.7320   -0.5000    0.0000 H       1  UNL1        0.0647
     53 H           4.2690    0.8100    0.0000 H       1  UNL1        0.0647
     54 H           3.8015    1.1650    0.0000 H       1  UNL1        0.0584
     55 H           3.0044    1.1650    0.0000 H       1  UNL1        0.0584
     56 H           4.5981   -2.6200    0.0000 H       1  UNL1        0.2101
     57 H           6.0010    5.8100    0.0000 H       1  UNL1        0.2954
     58 H           3.4030   -1.9300    0.0000 H       1  UNL1        0.2100
     59 H           2.0000    0.5000    0.0000 H       1  UNL1        0.2095
     60 H           8.2700   -2.5000    0.0000 H       1  UNL1        0.0689
     61 H           7.1962   -4.1200    0.0000 H       1  UNL1        0.0626
     62 H           8.0622   -5.6200    0.0000 H       1  UNL1        0.0623
     63 H           9.4651   -3.1900    0.0000 H       1  UNL1        0.0623
     64 H           9.4651   -6.4300    0.0000 H       1  UNL1        0.0618
     65 H          10.8681   -4.0000    0.0000 H       1  UNL1        0.0618
     66 H          10.8681   -5.6200    0.0000 H       1  UNL1        0.0618
@<TRIPOS>BOND
     1    13     1    1
     2     1    47    1
     3     2    17    1
     4     2    20    1
     5    17     3    1
     6    21     3    1
     7     4    21    1
     8     4    26    1
     9    22     5    1
    10     5    28    1
    11    24     6    1
    12     6    56    1
    13     7    23    1
    14     7    57    1
    15    25     8    1
    16     8    58    1
    17     9    23    2
    18    10    27    1
    19    10    59    1
    20    11    28    2
    21    12    13    1
    22    12    14    1
    23    12    17    1
    24    12    37    1
    25    13    15    1
    26    13    19    1
    27    14    16    1
    28    14    18    1
    29    14    38    1
    30    15    16    1
    31    15    39    1
    32    15    40    1
    33    16    41    1
    34    16    42    1
    35    17    43    1
    36    18    20    2
    37    18    23    1
    38    19    44    1
    39    19    45    1
    40    19    46    1
    41    20    48    1
    42    21    22    1
    43    21    49    1
    44    22    24    1
    45    22    50    1
    46    24    25    1
    47    24    51    1
    48    25    26    1
    49    25    52    1
    50    26    27    1
    51    26    53    1
    52    27    54    1
    53    27    55    1
    54    28    29    1
    55    29    30    2
    56    29    60    1
    57    30    31    1
    58    30    61    1
    59    31    32   ar
    60    31    33   ar
    61    32    34   ar
    62    32    62    1
    63    33    35   ar
    64    33    63    1
    65    34    36   ar
    66    34    64    1
    67    35    36   ar
    68    35    65    1
    69    36    66    1
