@<TRIPOS>MOLECULE
IMPHY007992
 28 29 0 0 0
SMALL
GASTEIGER

@<TRIPOS>ATOM
      1 O           6.4103   -0.9947    0.0000 O.2     1  UNL1       -0.4550
      2 O           2.8660   -1.1900    0.0000 O.3     1  UNL1       -0.5059
      3 O           2.0000    0.3100    0.0000 O.2     1  UNL1       -0.2922
      4 C           5.4641    0.3100    0.0000 C.ar    1  UNL1        0.0216
      5 C           5.4641   -0.6900    0.0000 C.ar    1  UNL1        0.1392
      6 C           6.4103    0.6147    0.0000 C.ar    1  UNL1       -0.0084
      7 C           4.5981    0.8100    0.0000 C.ar    1  UNL1       -0.0370
      8 C           6.9939   -0.1900    0.0000 C.ar    1  UNL1        0.1315
      9 C           3.7320    0.3100    0.0000 C.ar    1  UNL1        0.0593
     10 C           4.5981   -1.1900    0.0000 C.ar    1  UNL1        0.0234
     11 C           3.7320   -0.6900    0.0000 C.ar    1  UNL1        0.1308
     12 C           7.9939   -0.1900    0.0000 C.2     1  UNL1       -0.0152
     13 C           2.8660    0.8100    0.0000 C.2     1  UNL1        0.1636
     14 C           8.4939   -1.0560    0.0000 C.3     1  UNL1       -0.0368
     15 C           2.8660    1.8100    0.0000 C.3     1  UNL1       -0.0013
     16 C           8.4939    0.6760    0.0000 C.2     1  UNL1       -0.0923
     17 H           6.6029    1.2040    0.0000 H       1  UNL1        0.0661
     18 H           4.5981    1.4300    0.0000 H       1  UNL1        0.0633
     19 H           4.5981   -1.8100    0.0000 H       1  UNL1        0.0691
     20 H           7.9570   -1.3660    0.0000 H       1  UNL1        0.0278
     21 H           8.8039   -1.5930    0.0000 H       1  UNL1        0.0278
     22 H           9.0309   -0.7460    0.0000 H       1  UNL1        0.0278
     23 H           3.4860    1.8100    0.0000 H       1  UNL1        0.0309
     24 H           2.8660    2.4300    0.0000 H       1  UNL1        0.0309
     25 H           2.2460    1.8100    0.0000 H       1  UNL1        0.0309
     26 H           9.1139    0.6760    0.0000 H       1  UNL1        0.0539
     27 H           8.1839    1.2130    0.0000 H       1  UNL1        0.0539
     28 H           2.8660   -1.8100    0.0000 H       1  UNL1        0.2922
@<TRIPOS>BOND
     1     1     5   ar
     2     1     8   ar
     3     2    11    1
     4     2    28    1
     5     3    13    2
     6     4     5   ar
     7     4     6   ar
     8     4     7   ar
     9     5    10   ar
    10     6     8   ar
    11     6    17    1
    12     7     9   ar
    13     7    18    1
    14     8    12    1
    15     9    11   ar
    16     9    13    1
    17    10    11   ar
    18    10    19    1
    19    12    14    1
    20    12    16    2
    21    13    15    1
    22    14    20    1
    23    14    21    1
    24    14    22    1
    25    15    23    1
    26    15    24    1
    27    15    25    1
    28    16    26    1
    29    16    27    1
