@<TRIPOS>MOLECULE
IMPHY006694
 49 53 0 0 0
SMALL
GASTEIGER

@<TRIPOS>ATOM
      1 O           6.3474    2.2715    0.0000 O.3     1  UNL1       -0.4634
      2 O           7.2134    0.7715    0.0000 O.2     1  UNL1       -0.2433
      3 N           2.8393   -0.7354    0.0000 N.3     1  UNL1       -0.2930
      4 N           5.4814   -0.2285    0.0000 N.ar    1  UNL1       -0.3055
      5 C           3.7493    0.7715    0.0000 C.3     1  UNL1        0.0120
      6 C           3.7493   -0.2285    0.0000 C.3     1  UNL1        0.0606
      7 C           2.8911    1.2684    0.0000 C.3     1  UNL1       -0.0409
      8 C           4.6153   -0.7285    0.0000 C.ar    1  UNL1        0.0463
      9 C           2.0000   -0.2072    0.0000 C.3     1  UNL1       -0.0004
     10 C           2.0256    0.7842    0.0000 C.3     1  UNL1       -0.0393
     11 C           3.7493    1.7715    0.0000 C.3     1  UNL1       -0.0449
     12 C           2.8313   -1.7770    0.0000 C.3     1  UNL1        0.0036
     13 C           4.6314   -1.7700    0.0000 C.ar    1  UNL1       -0.0158
     14 C           4.6153    1.2715    0.0000 C.2     1  UNL1       -0.0451
     15 C           3.7334   -2.2978    0.0000 C.3     1  UNL1       -0.0125
     16 C           5.4814    0.7715    0.0000 C.2     1  UNL1        0.1283
     17 C           5.6194   -1.8772    0.0000 C.ar    1  UNL1        0.0037
     18 C           6.0993   -1.0069    0.0000 C.ar    1  UNL1        0.0546
     19 C           2.8833    2.2715    0.0000 C.3     1  UNL1       -0.0644
     20 C           6.1408   -2.7715    0.0000 C.ar    1  UNL1       -0.0523
     21 C           6.3474    1.2715    0.0000 C.2     1  UNL1        0.3556
     22 C           7.1338   -0.9706    0.0000 C.ar    1  UNL1       -0.0372
     23 C           7.1760   -2.7591    0.0000 C.ar    1  UNL1       -0.0611
     24 C           7.6758   -1.8525    0.0000 C.ar    1  UNL1       -0.0598
     25 C           7.2134    2.7715    0.0000 C.3     1  UNL1        0.0820
     26 H           3.7493   -1.0785    0.0000 H       1  UNL1        0.0536
     27 H           3.2922    1.7412    0.0000 H       1  UNL1        0.0275
     28 H           2.4971    1.7471    0.0000 H       1  UNL1        0.0275
     29 H           1.3929   -0.0813    0.0000 H       1  UNL1        0.0427
     30 H           1.7682   -0.7822    0.0000 H       1  UNL1        0.0427
     31 H           1.8239    1.3705    0.0000 H       1  UNL1        0.0278
     32 H           1.4128    0.6899    0.0000 H       1  UNL1        0.0278
     33 H           4.3599    1.6638    0.0000 H       1  UNL1        0.0272
     34 H           3.9614    2.3541    0.0000 H       1  UNL1        0.0272
     35 H           2.2213   -1.6662    0.0000 H       1  UNL1        0.0430
     36 H           2.6177   -2.3590    0.0000 H       1  UNL1        0.0430
     37 H           4.6153    1.8915    0.0000 H       1  UNL1        0.0601
     38 H           3.3361   -2.7738    0.0000 H       1  UNL1        0.0326
     39 H           4.1343   -2.7707    0.0000 H       1  UNL1        0.0326
     40 H           3.1933    2.8084    0.0000 H       1  UNL1        0.0230
     41 H           2.3464    2.5815    0.0000 H       1  UNL1        0.0230
     42 H           2.5733    1.7345    0.0000 H       1  UNL1        0.0230
     43 H           5.8352   -3.3109    0.0000 H       1  UNL1        0.0624
     44 H           7.4269   -0.4242    0.0000 H       1  UNL1        0.0638
     45 H           7.4944   -3.2910    0.0000 H       1  UNL1        0.0618
     46 H           8.2956   -1.8379    0.0000 H       1  UNL1        0.0618
     47 H           7.5234    2.2345    0.0000 H       1  UNL1        0.0661
     48 H           7.7504    3.0815    0.0000 H       1  UNL1        0.0661
     49 H           6.9034    3.3084    0.0000 H       1  UNL1        0.0661
@<TRIPOS>BOND
     1     1    21    1
     2     1    25    1
     3     2    21    2
     4     3     6    1
     5     3     9    1
     6     3    12    1
     7     4     8   ar
     8     4    16    1
     9     4    18   ar
    10     5     6    1
    11     5     7    1
    12     5    11    1
    13     5    14    1
    14     6     8    1
    15     6    26    1
    16     7    10    1
    17     7    27    1
    18     7    28    1
    19     8    13   ar
    20     9    10    1
    21     9    29    1
    22     9    30    1
    23    10    31    1
    24    10    32    1
    25    11    19    1
    26    11    33    1
    27    11    34    1
    28    12    15    1
    29    12    35    1
    30    12    36    1
    31    13    15    1
    32    13    17   ar
    33    14    16    2
    34    14    37    1
    35    15    38    1
    36    15    39    1
    37    16    21    1
    38    17    18   ar
    39    17    20   ar
    40    18    22   ar
    41    19    40    1
    42    19    41    1
    43    19    42    1
    44    20    23   ar
    45    20    43    1
    46    22    24   ar
    47    22    44    1
    48    23    24   ar
    49    23    45    1
    50    24    46    1
    51    25    47    1
    52    25    48    1
    53    25    49    1
