@<TRIPOS>MOLECULE
IMPHY001553
 36 37 0 0 0
SMALL
GASTEIGER

@<TRIPOS>ATOM
      1 O           4.5981    0.2500    0.0000 O.3     1  UNL1       -0.4574
      2 O           2.8660    0.2500    0.0000 O.2     1  UNL1       -0.2456
      3 C           6.3301    3.2500    0.0000 C.ar    1  UNL1       -0.0252
      4 C           2.8660   -2.7500    0.0000 C.ar    1  UNL1       -0.0248
      5 C           5.4641    2.7500    0.0000 C.2     1  UNL1       -0.0554
      6 C           6.3301    4.2500    0.0000 C.ar    1  UNL1       -0.0546
      7 C           7.1962    2.7500    0.0000 C.ar    1  UNL1       -0.0546
      8 C           4.5981    1.2500    0.0000 C.3     1  UNL1        0.1113
      9 C           5.4641    1.7500    0.0000 C.2     1  UNL1       -0.0465
     10 C           2.0000   -3.2500    0.0000 C.ar    1  UNL1       -0.0546
     11 C           3.7320   -3.2500    0.0000 C.ar    1  UNL1       -0.0546
     12 C           2.8660   -1.7500    0.0000 C.2     1  UNL1       -0.0478
     13 C           7.1962    4.7500    0.0000 C.ar    1  UNL1       -0.0612
     14 C           8.0622    3.2500    0.0000 C.ar    1  UNL1       -0.0612
     15 C           8.0622    4.2500    0.0000 C.ar    1  UNL1       -0.0617
     16 C           2.0000   -4.2500    0.0000 C.ar    1  UNL1       -0.0612
     17 C           3.7320   -4.2500    0.0000 C.ar    1  UNL1       -0.0612
     18 C           2.8660   -4.7500    0.0000 C.ar    1  UNL1       -0.0617
     19 C           3.7320   -1.2500    0.0000 C.2     1  UNL1        0.0231
     20 C           3.7320   -0.2500    0.0000 C.2     1  UNL1        0.3322
     21 H           4.9272    3.0600    0.0000 H       1  UNL1        0.0621
     22 H           5.7932    4.5600    0.0000 H       1  UNL1        0.0623
     23 H           7.1962    2.1300    0.0000 H       1  UNL1        0.0623
     24 H           4.3860    1.8326    0.0000 H       1  UNL1        0.0743
     25 H           3.9875    1.1423    0.0000 H       1  UNL1        0.0743
     26 H           6.0010    1.4400    0.0000 H       1  UNL1        0.0606
     27 H           1.4631   -2.9400    0.0000 H       1  UNL1        0.0623
     28 H           4.2690   -2.9400    0.0000 H       1  UNL1        0.0623
     29 H           2.3291   -1.4400    0.0000 H       1  UNL1        0.0626
     30 H           7.1962    5.3700    0.0000 H       1  UNL1        0.0618
     31 H           8.5991    2.9400    0.0000 H       1  UNL1        0.0618
     32 H           8.5991    4.5600    0.0000 H       1  UNL1        0.0618
     33 H           1.4631   -4.5600    0.0000 H       1  UNL1        0.0618
     34 H           4.2690   -4.5600    0.0000 H       1  UNL1        0.0618
     35 H           2.8660   -5.3700    0.0000 H       1  UNL1        0.0618
     36 H           4.2690   -1.5600    0.0000 H       1  UNL1        0.0689
@<TRIPOS>BOND
     1     1     8    1
     2     1    20    1
     3     2    20    2
     4     3     5    1
     5     3     6   ar
     6     3     7   ar
     7     4    10   ar
     8     4    11   ar
     9     4    12    1
    10     5     9    2
    11     5    21    1
    12     6    13   ar
    13     6    22    1
    14     7    14   ar
    15     7    23    1
    16     8     9    1
    17     8    24    1
    18     8    25    1
    19     9    26    1
    20    10    16   ar
    21    10    27    1
    22    11    17   ar
    23    11    28    1
    24    12    19    2
    25    12    29    1
    26    13    15   ar
    27    13    30    1
    28    14    15   ar
    29    14    31    1
    30    15    32    1
    31    16    18   ar
    32    16    33    1
    33    17    18   ar
    34    17    34    1
    35    18    35    1
    36    19    20    1
    37    19    36    1
