@<TRIPOS>MOLECULE
IMPHY002139
 81 84 0 0 0
SMALL
GASTEIGER

@<TRIPOS>ATOM
      1 O           2.5357   -3.2258    0.0000 O.3     1  UNL1       -0.3912
      2 C           7.9288   -0.1735    0.0000 C.3     1  UNL1       -0.0199
      3 C           7.9288   -1.1735    0.0000 C.3     1  UNL1       -0.0051
      4 C           6.1968   -1.1735    0.0000 C.3     1  UNL1       -0.0137
      5 C           5.2868   -1.6803    0.0000 C.3     1  UNL1       -0.0218
      6 C           8.8750    0.1313    0.0000 C.3     1  UNL1       -0.0322
      7 C           7.0628   -1.6735    0.0000 C.2     1  UNL1       -0.0634
      8 C           5.2787   -2.7219    0.0000 C.3     1  UNL1       -0.0242
      9 C           7.0628    0.3265    0.0000 C.3     1  UNL1       -0.0460
     10 C           8.8750   -1.4782    0.0000 C.3     1  UNL1       -0.0431
     11 C           6.1968   -0.1735    0.0000 C.3     1  UNL1       -0.0455
     12 C           9.4586   -0.6735    0.0000 C.3     1  UNL1       -0.0486
     13 C           4.3433   -3.2716    0.0000 C.3     1  UNL1       -0.0053
     14 C           4.3599   -1.1162    0.0000 C.3     1  UNL1       -0.0444
     15 C           6.1808   -3.2427    0.0000 C.3     1  UNL1       -0.0306
     16 C           7.9288    0.8265    0.0000 C.3     1  UNL1       -0.0585
     17 C           7.9288   -2.1735    0.0000 C.3     1  UNL1       -0.0553
     18 C           9.1857    1.0818    0.0000 C.3     1  UNL1       -0.0402
     19 C           7.0789   -2.7150    0.0000 C.2     1  UNL1       -0.0836
     20 C           3.4037   -2.7291    0.0000 C.3     1  UNL1        0.0606
     21 C           5.2945   -0.6803    0.0000 C.3     1  UNL1       -0.0587
     22 C           3.4120   -1.6442    0.0000 C.3     1  UNL1       -0.0258
     23 C           3.8467   -4.1396    0.0000 C.3     1  UNL1       -0.0572
     24 C           4.8466   -4.1357    0.0000 C.3     1  UNL1       -0.0572
     25 C          10.1642    1.2880    0.0000 C.3     1  UNL1       -0.0467
     26 C           8.5179    1.8261    0.0000 C.3     1  UNL1       -0.0621
     27 C          10.4749    2.2385    0.0000 C.3     1  UNL1       -0.0343
     28 C          11.4534    2.4448    0.0000 C.2     1  UNL1       -0.0853
     29 C          11.7640    3.3953    0.0000 C.2     1  UNL1       -0.0796
     30 C          12.7425    3.6015    0.0000 C.3     1  UNL1       -0.0440
     31 C          11.0962    4.1396    0.0000 C.3     1  UNL1       -0.0440
     32 H           6.9329   -0.7485    0.0000 H       1  UNL1        0.0351
     33 H           9.7148    0.2632    0.0000 H       1  UNL1        0.0309
     34 H           5.2820   -3.5719    0.0000 H       1  UNL1        0.0315
     35 H           7.4613    0.8015    0.0000 H       1  UNL1        0.0271
     36 H           6.6643    0.8015    0.0000 H       1  UNL1        0.0271
     37 H           8.6240   -2.0451    0.0000 H       1  UNL1        0.0274
     38 H           9.4124   -1.7874    0.0000 H       1  UNL1        0.0274
     39 H           5.9847    0.4092    0.0000 H       1  UNL1        0.0271
     40 H           5.5862   -0.2811    0.0000 H       1  UNL1        0.0271
     41 H           9.9195   -1.0882    0.0000 H       1  UNL1        0.0268
     42 H           9.9195   -0.2587    0.0000 H       1  UNL1        0.0268
     43 H           4.7681   -0.6496    0.0000 H       1  UNL1        0.0272
     44 H           3.9700   -0.6342    0.0000 H       1  UNL1        0.0272
     45 H           5.7835   -3.7187    0.0000 H       1  UNL1        0.0310
     46 H           6.5818   -3.7156    0.0000 H       1  UNL1        0.0310
     47 H           8.5488    0.8265    0.0000 H       1  UNL1        0.0235
     48 H           7.9288    1.4465    0.0000 H       1  UNL1        0.0235
     49 H           7.3088    0.8265    0.0000 H       1  UNL1        0.0235
     50 H           7.3088   -2.1735    0.0000 H       1  UNL1        0.0238
     51 H           7.9288   -2.7935    0.0000 H       1  UNL1        0.0238
     52 H           8.5488   -2.1735    0.0000 H       1  UNL1        0.0238
     53 H           9.3783    1.6711    0.0000 H       1  UNL1        0.0301
     54 H           7.6193   -3.0187    0.0000 H       1  UNL1        0.0572
     55 H           3.4025   -3.3491    0.0000 H       1  UNL1        0.0599
     56 H           5.9145   -0.6851    0.0000 H       1  UNL1        0.0235
     57 H           5.2993   -0.0604    0.0000 H       1  UNL1        0.0235
     58 H           4.6745   -0.6756    0.0000 H       1  UNL1        0.0235
     59 H           3.2075   -1.0589    0.0000 H       1  UNL1        0.0290
     60 H           2.8004   -1.7456    0.0000 H       1  UNL1        0.0290
     61 H           3.3085   -3.8316    0.0000 H       1  UNL1        0.0236
     62 H           3.5387   -4.6777    0.0000 H       1  UNL1        0.0236
     63 H           4.3848   -4.4475    0.0000 H       1  UNL1        0.0236
     64 H           4.3109   -4.4478    0.0000 H       1  UNL1        0.0236
     65 H           5.1587   -4.6715    0.0000 H       1  UNL1        0.0236
     66 H           5.3824   -3.8236    0.0000 H       1  UNL1        0.0236
     67 H          10.1848    0.6684    0.0000 H       1  UNL1        0.0271
     68 H          10.7780    1.2007    0.0000 H       1  UNL1        0.0271
     69 H           8.9793    2.2402    0.0000 H       1  UNL1        0.0233
     70 H           8.1038    2.2876    0.0000 H       1  UNL1        0.0233
     71 H           8.0564    1.4120    0.0000 H       1  UNL1        0.0233
     72 H           2.0000   -2.9137    0.0000 H       1  UNL1        0.2098
     73 H          10.4543    2.8582    0.0000 H       1  UNL1        0.0307
     74 H           9.8611    2.3259    0.0000 H       1  UNL1        0.0307
     75 H          11.8674    1.9833    0.0000 H       1  UNL1        0.0571
     76 H          11.5577    4.5536    0.0000 H       1  UNL1        0.0274
     77 H          10.6821    4.6010    0.0000 H       1  UNL1        0.0274
     78 H          12.8704    2.9948    0.0000 H       1  UNL1        0.0274
     79 H          10.6347    3.7255    0.0000 H       1  UNL1        0.0274
     80 H          13.3492    3.7294    0.0000 H       1  UNL1        0.0274
     81 H          12.6147    4.2082    0.0000 H       1  UNL1        0.0274
@<TRIPOS>BOND
     1    20     1    1
     2     1    72    1
     3     2     3    1
     4     2     6    1
     5     2     9    1
     6     2    16    1
     7     3     7    1
     8     3    10    1
     9     3    17    1
    10     4     5    1
    11     4     7    1
    12     4    11    1
    13     4    32    1
    14     5     8    1
    15     5    14    1
    16     5    21    1
    17     6    12    1
    18     6    18    1
    19     6    33    1
    20     7    19    2
    21     8    13    1
    22     8    15    1
    23     8    34    1
    24     9    11    1
    25     9    35    1
    26     9    36    1
    27    10    12    1
    28    10    37    1
    29    10    38    1
    30    11    39    1
    31    11    40    1
    32    12    41    1
    33    12    42    1
    34    13    20    1
    35    13    23    1
    36    13    24    1
    37    14    22    1
    38    14    43    1
    39    14    44    1
    40    15    19    1
    41    15    45    1
    42    15    46    1
    43    16    47    1
    44    16    48    1
    45    16    49    1
    46    17    50    1
    47    17    51    1
    48    17    52    1
    49    18    25    1
    50    18    26    1
    51    18    53    1
    52    19    54    1
    53    20    22    1
    54    20    55    1
    55    21    56    1
    56    21    57    1
    57    21    58    1
    58    22    59    1
    59    22    60    1
    60    23    61    1
    61    23    62    1
    62    23    63    1
    63    24    64    1
    64    24    65    1
    65    24    66    1
    66    25    27    1
    67    25    67    1
    68    25    68    1
    69    26    69    1
    70    26    70    1
    71    26    71    1
    72    27    28    1
    73    27    73    1
    74    27    74    1
    75    28    29    2
    76    28    75    1
    77    29    30    1
    78    29    31    1
    79    30    78    1
    80    30    80    1
    81    30    81    1
    82    31    76    1
    83    31    77    1
    84    31    79    1
