@<TRIPOS>MOLECULE
IMPHY016767
 49 48 0 0 0
SMALL
GASTEIGER

@<TRIPOS>ATOM
      1 CL          9.1360    5.8285    0.0000 Cl      1  UNL1        0.0000
      2 N           5.7331    9.5369    0.0000 N.ar    2  UNL2       -0.2038
      3 C           3.1350    5.0369    0.0000 C.3     2  UNL2       -0.0531
      4 C           4.0010    5.5369    0.0000 C.3     2  UNL2       -0.0531
      5 C           3.1350    4.0369    0.0000 C.3     2  UNL2       -0.0531
      6 C           4.0010    6.5369    0.0000 C.3     2  UNL2       -0.0529
      7 C           2.2690    3.5369    0.0000 C.3     2  UNL2       -0.0531
      8 C           4.8671    7.0369    0.0000 C.3     2  UNL2       -0.0473
      9 C           2.2690    2.5369    0.0000 C.3     2  UNL2       -0.0531
     10 C           4.8671    8.0369    0.0000 C.3     2  UNL2        0.0069
     11 C           1.4030    2.0369    0.0000 C.3     2  UNL2       -0.0533
     12 C           5.7331    8.5369    0.0000 C.3     2  UNL2        0.1505
     13 C           1.4030    1.0369    0.0000 C.3     2  UNL2       -0.0559
     14 C           0.5369    0.5369    0.0000 C.3     2  UNL2       -0.0653
     15 C           4.8671   10.0369    0.0000 C.ar    2  UNL2        0.1712
     16 C           6.5991   10.0369    0.0000 C.ar    2  UNL2        0.1712
     17 C           4.8671   11.0369    0.0000 C.ar    2  UNL2        0.0021
     18 C           6.5991   11.0369    0.0000 C.ar    2  UNL2        0.0021
     19 C           5.7331   11.5369    0.0000 C.ar    2  UNL2       -0.0506
     20 H           2.9230    5.6195    0.0000 H       2  UNL2        0.0265
     21 H           2.5244    4.9293    0.0000 H       2  UNL2        0.0265
     22 H           4.2131    4.9543    0.0000 H       2  UNL2        0.0265
     23 H           4.6116    5.6446    0.0000 H       2  UNL2        0.0265
     24 H           3.3471    3.4543    0.0000 H       2  UNL2        0.0265
     25 H           3.7456    4.1446    0.0000 H       2  UNL2        0.0265
     26 H           3.7890    7.1195    0.0000 H       2  UNL2        0.0265
     27 H           3.3905    6.4293    0.0000 H       2  UNL2        0.0265
     28 H           2.0569    4.1195    0.0000 H       2  UNL2        0.0265
     29 H           1.6584    3.4293    0.0000 H       2  UNL2        0.0265
     30 H           5.0791    6.4543    0.0000 H       2  UNL2        0.0267
     31 H           5.4776    7.1446    0.0000 H       2  UNL2        0.0267
     32 H           2.4810    1.9543    0.0000 H       2  UNL2        0.0265
     33 H           2.8796    2.6446    0.0000 H       2  UNL2        0.0265
     34 H           4.6550    8.6195    0.0000 H       2  UNL2        0.0326
     35 H           4.2565    7.9293    0.0000 H       2  UNL2        0.0326
     36 H           1.1909    2.6196    0.0000 H       2  UNL2        0.0265
     37 H           0.7924    1.9293    0.0000 H       2  UNL2        0.0265
     38 H           5.9451    7.9543    0.0000 H       2  UNL2        0.1030
     39 H           6.3437    8.6446    0.0000 H       2  UNL2        0.1030
     40 H           1.6150    0.4543    0.0000 H       2  UNL2        0.0263
     41 H           2.0135    1.1446    0.0000 H       2  UNL2        0.0263
     42 H           0.2269    1.0739    0.0000 H       2  UNL2        0.0230
     43 H           0.0000    0.2269    0.0000 H       2  UNL2        0.0230
     44 H           0.8469    0.0000    0.0000 H       2  UNL2        0.0230
     45 H           4.3301    9.7269    0.0000 H       2  UNL2        0.1376
     46 H           7.1360    9.7269    0.0000 H       2  UNL2        0.1376
     47 H           4.3301   11.3469    0.0000 H       2  UNL2        0.0677
     48 H           7.1360   11.3469    0.0000 H       2  UNL2        0.0677
     49 H           5.7331   12.1569    0.0000 H       2  UNL2        0.0621
@<TRIPOS>UNITY_ATOM_ATTR
1 1
charge -1
2 1
charge 1
@<TRIPOS>BOND
     1     2    12    1
     2     2    15   ar
     3     2    16   ar
     4     3     4    1
     5     3     5    1
     6     3    20    1
     7     3    21    1
     8     4     6    1
     9     4    22    1
    10     4    23    1
    11     5     7    1
    12     5    24    1
    13     5    25    1
    14     6     8    1
    15     6    26    1
    16     6    27    1
    17     7     9    1
    18     7    28    1
    19     7    29    1
    20     8    10    1
    21     8    30    1
    22     8    31    1
    23     9    11    1
    24     9    32    1
    25     9    33    1
    26    10    12    1
    27    10    34    1
    28    10    35    1
    29    11    13    1
    30    11    36    1
    31    11    37    1
    32    12    38    1
    33    12    39    1
    34    13    14    1
    35    13    40    1
    36    13    41    1
    37    14    42    1
    38    14    43    1
    39    14    44    1
    40    15    17   ar
    41    15    45    1
    42    16    18   ar
    43    16    46    1
    44    17    19   ar
    45    17    47    1
    46    18    19   ar
    47    18    48    1
    48    19    49    1
