@<TRIPOS>MOLECULE
IMPHY013875
 28 30 0 0 0
SMALL
GASTEIGER

@<TRIPOS>ATOM
      1 O           6.4783    0.8047    0.0000 O.2     1  UNL1       -0.4531
      2 O           8.5619   -0.8660    0.0000 O.3     1  UNL1       -0.3844
      3 O           4.6660   -2.0000    0.0000 O.2     1  UNL1       -0.2865
      4 O           4.6660    2.0000    0.0000 O.2     1  UNL1       -0.2833
      5 C           5.5321   -0.5000    0.0000 C.ar    1  UNL1        0.0715
      6 C           5.5321    0.5000    0.0000 C.ar    1  UNL1        0.1860
      7 C           7.0619   -0.0000    0.0000 C.ar    1  UNL1        0.1346
      8 C           3.8000   -0.5000    0.0000 C.ar    1  UNL1        0.0333
      9 C           3.8000    0.5000    0.0000 C.ar    1  UNL1        0.0362
     10 C           6.4783   -0.8047    0.0000 C.ar    1  UNL1       -0.0065
     11 C           4.6660   -1.0000    0.0000 C.2     1  UNL1        0.1976
     12 C           8.0619   -0.0000    0.0000 C.3     1  UNL1        0.1099
     13 C           4.6660    1.0000    0.0000 C.2     1  UNL1        0.2293
     14 C           2.9061   -1.0347    0.0000 C.ar    1  UNL1       -0.0502
     15 C           2.9061    1.0347    0.0000 C.ar    1  UNL1       -0.0501
     16 C           8.5619    0.8660    0.0000 C.3     1  UNL1       -0.0318
     17 C           2.0000   -0.5208    0.0000 C.ar    1  UNL1       -0.0610
     18 C           2.0000    0.5208    0.0000 C.ar    1  UNL1       -0.0610
     19 H           6.6709   -1.3940    0.0000 H       1  UNL1        0.0660
     20 H           7.7519   -0.5369    0.0000 H       1  UNL1        0.0672
     21 H           2.9132   -1.6546    0.0000 H       1  UNL1        0.0625
     22 H           2.9132    1.6546    0.0000 H       1  UNL1        0.0625
     23 H           9.0988    0.5560    0.0000 H       1  UNL1        0.0259
     24 H           8.8719    1.4030    0.0000 H       1  UNL1        0.0259
     25 H           8.0250    1.1760    0.0000 H       1  UNL1        0.0259
     26 H           1.4643   -0.8329    0.0000 H       1  UNL1        0.0618
     27 H           1.4643    0.8329    0.0000 H       1  UNL1        0.0618
     28 H           9.1819   -0.8660    0.0000 H       1  UNL1        0.2104
@<TRIPOS>BOND
     1     1     6   ar
     2     1     7   ar
     3     2    12    1
     4     2    28    1
     5     3    11    2
     6     4    13    2
     7     5     6   ar
     8     5    10   ar
     9     5    11    1
    10     6    13    1
    11     7    10   ar
    12     7    12    1
    13     8     9   ar
    14     8    11    1
    15     8    14   ar
    16     9    13    1
    17     9    15   ar
    18    10    19    1
    19    12    16    1
    20    12    20    1
    21    14    17   ar
    22    14    21    1
    23    15    18   ar
    24    15    22    1
    25    16    23    1
    26    16    24    1
    27    16    25    1
    28    17    18   ar
    29    17    26    1
    30    18    27    1
